
---------- Begin Simulation Statistics ----------
simSeconds                                   0.440884                       # Number of seconds simulated (Second)
simTicks                                 440884440744                       # Number of ticks simulated (Tick)
finalTick                                440884440744                       # Number of ticks from beginning of simulation (restored from checkpoints and never reset) (Tick)
simFreq                                  1000000000000                       # The number of ticks per simulated second ((Tick/Second))
hostSeconds                                    408.29                       # Real time elapsed on the host (Second)
hostTickRate                               1079828323                       # The number of ticks simulated per host second (ticks/s) ((Tick/Second))
hostMemory                                    1184508                       # Number of bytes of host memory used (Byte)
simInsts                                     53215428                       # Number of instructions simulated (Count)
simOps                                       62388830                       # Number of ops (including micro ops) simulated (Count)
hostInstRate                                   130337                       # Simulator instruction rate (inst/s) ((Count/Second))
hostOpRate                                     152805                       # Simulator op (including micro ops) rate (op/s) ((Count/Second))
board.cache_hierarchy.membus.transDist::ReadReq     17108216                       # Transaction distribution (Count)
board.cache_hierarchy.membus.transDist::ReadResp     17108214                       # Transaction distribution (Count)
board.cache_hierarchy.membus.transDist::WriteReq      2042286                       # Transaction distribution (Count)
board.cache_hierarchy.membus.transDist::WriteResp      2042286                       # Transaction distribution (Count)
board.cache_hierarchy.membus.transDist::SoftPFReq         1250                       # Transaction distribution (Count)
board.cache_hierarchy.membus.transDist::SoftPFResp         1250                       # Transaction distribution (Count)
board.cache_hierarchy.membus.transDist::LockedRMWReadReq           18                       # Transaction distribution (Count)
board.cache_hierarchy.membus.transDist::LockedRMWReadResp           18                       # Transaction distribution (Count)
board.cache_hierarchy.membus.transDist::LockedRMWWriteReq           18                       # Transaction distribution (Count)
board.cache_hierarchy.membus.transDist::LockedRMWWriteResp           18                       # Transaction distribution (Count)
board.cache_hierarchy.membus.pktCount_board.processor.cores.core.icache_port::board.memory.mem_ctrl.port     10129252                       # Packet count per connected requestor and responder (Count)
board.cache_hierarchy.membus.pktCount_board.processor.cores.core.icache_port::total     10129252                       # Packet count per connected requestor and responder (Count)
board.cache_hierarchy.membus.pktCount_board.processor.cores.core.dcache_port::board.memory.mem_ctrl.port     28174322                       # Packet count per connected requestor and responder (Count)
board.cache_hierarchy.membus.pktCount_board.processor.cores.core.dcache_port::total     28174322                       # Packet count per connected requestor and responder (Count)
board.cache_hierarchy.membus.pktCount::total     38303574                       # Packet count per connected requestor and responder (Count)
board.cache_hierarchy.membus.pktSize_board.processor.cores.core.icache_port::board.memory.mem_ctrl.port    324136000                       # Cumulative packet size per connected requestor and responder (Byte)
board.cache_hierarchy.membus.pktSize_board.processor.cores.core.icache_port::total    324136000                       # Cumulative packet size per connected requestor and responder (Byte)
board.cache_hierarchy.membus.pktSize_board.processor.cores.core.dcache_port::board.memory.mem_ctrl.port     56439923                       # Cumulative packet size per connected requestor and responder (Byte)
board.cache_hierarchy.membus.pktSize_board.processor.cores.core.dcache_port::total     56439923                       # Cumulative packet size per connected requestor and responder (Byte)
board.cache_hierarchy.membus.pktSize::total    380575923                       # Cumulative packet size per connected requestor and responder (Byte)
board.cache_hierarchy.membus.snoops                 0                       # Total snoops (Count)
board.cache_hierarchy.membus.snoopTraffic            0                       # Total snoop traffic (Byte)
board.cache_hierarchy.membus.snoopFanout::samples     19151792                       # Request fanout histogram (Count)
board.cache_hierarchy.membus.snoopFanout::mean            0                       # Request fanout histogram (Count)
board.cache_hierarchy.membus.snoopFanout::stdev            0                       # Request fanout histogram (Count)
board.cache_hierarchy.membus.snoopFanout::underflows            0      0.00%      0.00% # Request fanout histogram (Count)
board.cache_hierarchy.membus.snoopFanout::0     19151792    100.00%    100.00% # Request fanout histogram (Count)
board.cache_hierarchy.membus.snoopFanout::1            0      0.00%    100.00% # Request fanout histogram (Count)
board.cache_hierarchy.membus.snoopFanout::overflows            0      0.00%    100.00% # Request fanout histogram (Count)
board.cache_hierarchy.membus.snoopFanout::min_value            0                       # Request fanout histogram (Count)
board.cache_hierarchy.membus.snoopFanout::max_value            0                       # Request fanout histogram (Count)
board.cache_hierarchy.membus.snoopFanout::total     19151792                       # Request fanout histogram (Count)
board.cache_hierarchy.membus.badaddr_responder.power_state.pwrStateResidencyTicks::UNDEFINED 440884440744                       # Cumulative time (in ticks) in various power states (Tick)
board.cache_hierarchy.membus.power_state.pwrStateResidencyTicks::UNDEFINED 440884440744                       # Cumulative time (in ticks) in various power states (Tick)
board.cache_hierarchy.membus.reqLayer2.occupancy   6633752795                       # Layer occupancy (ticks) (Tick)
board.cache_hierarchy.membus.reqLayer2.utilization          0.0                       # Layer utilization (Ratio)
board.cache_hierarchy.membus.respLayer0.occupancy   3734058338                       # Layer occupancy (ticks) (Tick)
board.cache_hierarchy.membus.respLayer0.utilization          0.0                       # Layer utilization (Ratio)
board.cache_hierarchy.membus.respLayer1.occupancy  10068434165                       # Layer occupancy (ticks) (Tick)
board.cache_hierarchy.membus.respLayer1.utilization          0.0                       # Layer utilization (Ratio)
board.cache_hierarchy.membus.snoop_filter.totRequests            0                       # Total number of requests made to the snoop filter. (Count)
board.cache_hierarchy.membus.snoop_filter.hitSingleRequests            0                       # Number of requests hitting in the snoop filter with a single holder of the requested data. (Count)
board.cache_hierarchy.membus.snoop_filter.hitMultiRequests            0                       # Number of requests hitting in the snoop filter with multiple (>1) holders of the requested data. (Count)
board.cache_hierarchy.membus.snoop_filter.totSnoops            0                       # Total number of snoops made to the snoop filter. (Count)
board.cache_hierarchy.membus.snoop_filter.hitSingleSnoops            0                       # Number of snoops hitting in the snoop filter with a single holder of the requested data. (Count)
board.cache_hierarchy.membus.snoop_filter.hitMultiSnoops            0                       # Number of snoops hitting in the snoop filter with multiple (>1) holders of the requested data. (Count)
board.clk_domain.clock                            313                       # Clock period in ticks (Tick)
board.clk_domain.voltage_domain.voltage             1                       # Voltage in Volts (Volt)
board.memory.mem_ctrl.avgPriority_processor.cores.core.inst::samples   5064627.00                       # Average QoS priority value for accepted requests (Count)
board.memory.mem_ctrl.avgPriority_processor.cores.core.data::samples   8974172.00                       # Average QoS priority value for accepted requests (Count)
board.memory.mem_ctrl.priorityMinLatency 0.000000018750                       # per QoS priority minimum request to response latency (Second)
board.memory.mem_ctrl.priorityMaxLatency 0.098311597228                       # per QoS priority maximum request to response latency (Second)
board.memory.mem_ctrl.numReadWriteTurnArounds          137                       # Number of turnarounds from READ to WRITE (Count)
board.memory.mem_ctrl.numWriteReadTurnArounds          137                       # Number of turnarounds from WRITE to READ (Count)
board.memory.mem_ctrl.numStayReadState       22216001                       # Number of times bus staying in READ state (Count)
board.memory.mem_ctrl.numStayWriteState          2064                       # Number of times bus staying in WRITE state (Count)
board.memory.mem_ctrl.readReqs               17109484                       # Number of read requests accepted (Count)
board.memory.mem_ctrl.writeReqs               2042304                       # Number of write requests accepted (Count)
board.memory.mem_ctrl.readBursts             17109484                       # Number of controller read bursts, including those serviced by the write queue (Count)
board.memory.mem_ctrl.writeBursts             2042304                       # Number of controller write bursts, including those merged in the write queue (Count)
board.memory.mem_ctrl.servicedByWrQ           3072911                       # Number of controller read bursts serviced by the write queue (Count)
board.memory.mem_ctrl.mergedWrBursts          2040078                       # Number of controller write bursts merged with an existing one (Count)
board.memory.mem_ctrl.neitherReadNorWriteReqs            0                       # Number of requests that are neither read nor write (Count)
board.memory.mem_ctrl.avgRdQLen                  3.77                       # Average read queue length when enqueuing ((Count/Tick))
board.memory.mem_ctrl.avgWrQLen                 25.27                       # Average write queue length when enqueuing ((Count/Tick))
board.memory.mem_ctrl.numRdRetry                    4                       # Number of times read queue was full causing retry (Count)
board.memory.mem_ctrl.numWrRetry                    0                       # Number of times write queue was full causing retry (Count)
board.memory.mem_ctrl.readPktSize::0             1534                       # Read request sizes (log2) (Count)
board.memory.mem_ctrl.readPktSize::1               22                       # Read request sizes (log2) (Count)
board.memory.mem_ctrl.readPktSize::2         12031116                       # Read request sizes (log2) (Count)
board.memory.mem_ctrl.readPktSize::3            12185                       # Read request sizes (log2) (Count)
board.memory.mem_ctrl.readPktSize::4                0                       # Read request sizes (log2) (Count)
board.memory.mem_ctrl.readPktSize::5                0                       # Read request sizes (log2) (Count)
board.memory.mem_ctrl.readPktSize::6          5064627                       # Read request sizes (log2) (Count)
board.memory.mem_ctrl.writePktSize::0              39                       # Write request sizes (log2) (Count)
board.memory.mem_ctrl.writePktSize::1               2                       # Write request sizes (log2) (Count)
board.memory.mem_ctrl.writePktSize::2         2030435                       # Write request sizes (log2) (Count)
board.memory.mem_ctrl.writePktSize::3           11828                       # Write request sizes (log2) (Count)
board.memory.mem_ctrl.writePktSize::4               0                       # Write request sizes (log2) (Count)
board.memory.mem_ctrl.writePktSize::5               0                       # Write request sizes (log2) (Count)
board.memory.mem_ctrl.writePktSize::6               0                       # Write request sizes (log2) (Count)
board.memory.mem_ctrl.rdQLenPdf::0            1033851                       # What read queue length does an incoming req see (Count)
board.memory.mem_ctrl.rdQLenPdf::1            1257877                       # What read queue length does an incoming req see (Count)
board.memory.mem_ctrl.rdQLenPdf::2            5635373                       # What read queue length does an incoming req see (Count)
board.memory.mem_ctrl.rdQLenPdf::3            5015150                       # What read queue length does an incoming req see (Count)
board.memory.mem_ctrl.rdQLenPdf::4            1007754                       # What read queue length does an incoming req see (Count)
board.memory.mem_ctrl.rdQLenPdf::5              77610                       # What read queue length does an incoming req see (Count)
board.memory.mem_ctrl.rdQLenPdf::6                757                       # What read queue length does an incoming req see (Count)
board.memory.mem_ctrl.rdQLenPdf::7                684                       # What read queue length does an incoming req see (Count)
board.memory.mem_ctrl.rdQLenPdf::8                708                       # What read queue length does an incoming req see (Count)
board.memory.mem_ctrl.rdQLenPdf::9                666                       # What read queue length does an incoming req see (Count)
board.memory.mem_ctrl.rdQLenPdf::10               651                       # What read queue length does an incoming req see (Count)
board.memory.mem_ctrl.rdQLenPdf::11               639                       # What read queue length does an incoming req see (Count)
board.memory.mem_ctrl.rdQLenPdf::12               627                       # What read queue length does an incoming req see (Count)
board.memory.mem_ctrl.rdQLenPdf::13               625                       # What read queue length does an incoming req see (Count)
board.memory.mem_ctrl.rdQLenPdf::14               714                       # What read queue length does an incoming req see (Count)
board.memory.mem_ctrl.rdQLenPdf::15               640                       # What read queue length does an incoming req see (Count)
board.memory.mem_ctrl.rdQLenPdf::16               644                       # What read queue length does an incoming req see (Count)
board.memory.mem_ctrl.rdQLenPdf::17               638                       # What read queue length does an incoming req see (Count)
board.memory.mem_ctrl.rdQLenPdf::18               657                       # What read queue length does an incoming req see (Count)
board.memory.mem_ctrl.rdQLenPdf::19                74                       # What read queue length does an incoming req see (Count)
board.memory.mem_ctrl.rdQLenPdf::20                50                       # What read queue length does an incoming req see (Count)
board.memory.mem_ctrl.rdQLenPdf::21                43                       # What read queue length does an incoming req see (Count)
board.memory.mem_ctrl.rdQLenPdf::22                31                       # What read queue length does an incoming req see (Count)
board.memory.mem_ctrl.rdQLenPdf::23                20                       # What read queue length does an incoming req see (Count)
board.memory.mem_ctrl.rdQLenPdf::24                21                       # What read queue length does an incoming req see (Count)
board.memory.mem_ctrl.rdQLenPdf::25                20                       # What read queue length does an incoming req see (Count)
board.memory.mem_ctrl.rdQLenPdf::26                14                       # What read queue length does an incoming req see (Count)
board.memory.mem_ctrl.rdQLenPdf::27                11                       # What read queue length does an incoming req see (Count)
board.memory.mem_ctrl.rdQLenPdf::28                 8                       # What read queue length does an incoming req see (Count)
board.memory.mem_ctrl.rdQLenPdf::29                 4                       # What read queue length does an incoming req see (Count)
board.memory.mem_ctrl.rdQLenPdf::30                 4                       # What read queue length does an incoming req see (Count)
board.memory.mem_ctrl.rdQLenPdf::31                 8                       # What read queue length does an incoming req see (Count)
board.memory.mem_ctrl.wrQLenPdf::0                  1                       # What write queue length does an incoming req see (Count)
board.memory.mem_ctrl.wrQLenPdf::1                  1                       # What write queue length does an incoming req see (Count)
board.memory.mem_ctrl.wrQLenPdf::2                  1                       # What write queue length does an incoming req see (Count)
board.memory.mem_ctrl.wrQLenPdf::3                  1                       # What write queue length does an incoming req see (Count)
board.memory.mem_ctrl.wrQLenPdf::4                  1                       # What write queue length does an incoming req see (Count)
board.memory.mem_ctrl.wrQLenPdf::5                  1                       # What write queue length does an incoming req see (Count)
board.memory.mem_ctrl.wrQLenPdf::6                  1                       # What write queue length does an incoming req see (Count)
board.memory.mem_ctrl.wrQLenPdf::7                  1                       # What write queue length does an incoming req see (Count)
board.memory.mem_ctrl.wrQLenPdf::8                  1                       # What write queue length does an incoming req see (Count)
board.memory.mem_ctrl.wrQLenPdf::9                  1                       # What write queue length does an incoming req see (Count)
board.memory.mem_ctrl.wrQLenPdf::10                 1                       # What write queue length does an incoming req see (Count)
board.memory.mem_ctrl.wrQLenPdf::11                 1                       # What write queue length does an incoming req see (Count)
board.memory.mem_ctrl.wrQLenPdf::12                 1                       # What write queue length does an incoming req see (Count)
board.memory.mem_ctrl.wrQLenPdf::13                 1                       # What write queue length does an incoming req see (Count)
board.memory.mem_ctrl.wrQLenPdf::14                 1                       # What write queue length does an incoming req see (Count)
board.memory.mem_ctrl.wrQLenPdf::15                 4                       # What write queue length does an incoming req see (Count)
board.memory.mem_ctrl.wrQLenPdf::16                 5                       # What write queue length does an incoming req see (Count)
board.memory.mem_ctrl.wrQLenPdf::17               122                       # What write queue length does an incoming req see (Count)
board.memory.mem_ctrl.wrQLenPdf::18               137                       # What write queue length does an incoming req see (Count)
board.memory.mem_ctrl.wrQLenPdf::19               139                       # What write queue length does an incoming req see (Count)
board.memory.mem_ctrl.wrQLenPdf::20               141                       # What write queue length does an incoming req see (Count)
board.memory.mem_ctrl.wrQLenPdf::21               138                       # What write queue length does an incoming req see (Count)
board.memory.mem_ctrl.wrQLenPdf::22               139                       # What write queue length does an incoming req see (Count)
board.memory.mem_ctrl.wrQLenPdf::23               138                       # What write queue length does an incoming req see (Count)
board.memory.mem_ctrl.wrQLenPdf::24               141                       # What write queue length does an incoming req see (Count)
board.memory.mem_ctrl.wrQLenPdf::25               139                       # What write queue length does an incoming req see (Count)
board.memory.mem_ctrl.wrQLenPdf::26               138                       # What write queue length does an incoming req see (Count)
board.memory.mem_ctrl.wrQLenPdf::27               137                       # What write queue length does an incoming req see (Count)
board.memory.mem_ctrl.wrQLenPdf::28               140                       # What write queue length does an incoming req see (Count)
board.memory.mem_ctrl.wrQLenPdf::29               137                       # What write queue length does an incoming req see (Count)
board.memory.mem_ctrl.wrQLenPdf::30               139                       # What write queue length does an incoming req see (Count)
board.memory.mem_ctrl.wrQLenPdf::31               138                       # What write queue length does an incoming req see (Count)
board.memory.mem_ctrl.wrQLenPdf::32               137                       # What write queue length does an incoming req see (Count)
board.memory.mem_ctrl.wrQLenPdf::33                 2                       # What write queue length does an incoming req see (Count)
board.memory.mem_ctrl.wrQLenPdf::34                 0                       # What write queue length does an incoming req see (Count)
board.memory.mem_ctrl.wrQLenPdf::35                 0                       # What write queue length does an incoming req see (Count)
board.memory.mem_ctrl.wrQLenPdf::36                 0                       # What write queue length does an incoming req see (Count)
board.memory.mem_ctrl.wrQLenPdf::37                 0                       # What write queue length does an incoming req see (Count)
board.memory.mem_ctrl.wrQLenPdf::38                 0                       # What write queue length does an incoming req see (Count)
board.memory.mem_ctrl.wrQLenPdf::39                 0                       # What write queue length does an incoming req see (Count)
board.memory.mem_ctrl.wrQLenPdf::40                 0                       # What write queue length does an incoming req see (Count)
board.memory.mem_ctrl.wrQLenPdf::41                 0                       # What write queue length does an incoming req see (Count)
board.memory.mem_ctrl.wrQLenPdf::42                 0                       # What write queue length does an incoming req see (Count)
board.memory.mem_ctrl.wrQLenPdf::43                 0                       # What write queue length does an incoming req see (Count)
board.memory.mem_ctrl.wrQLenPdf::44                 0                       # What write queue length does an incoming req see (Count)
board.memory.mem_ctrl.wrQLenPdf::45                 0                       # What write queue length does an incoming req see (Count)
board.memory.mem_ctrl.wrQLenPdf::46                 0                       # What write queue length does an incoming req see (Count)
board.memory.mem_ctrl.wrQLenPdf::47                 0                       # What write queue length does an incoming req see (Count)
board.memory.mem_ctrl.wrQLenPdf::48                 0                       # What write queue length does an incoming req see (Count)
board.memory.mem_ctrl.wrQLenPdf::49                 0                       # What write queue length does an incoming req see (Count)
board.memory.mem_ctrl.wrQLenPdf::50                 0                       # What write queue length does an incoming req see (Count)
board.memory.mem_ctrl.wrQLenPdf::51                 0                       # What write queue length does an incoming req see (Count)
board.memory.mem_ctrl.wrQLenPdf::52                 0                       # What write queue length does an incoming req see (Count)
board.memory.mem_ctrl.wrQLenPdf::53                 0                       # What write queue length does an incoming req see (Count)
board.memory.mem_ctrl.wrQLenPdf::54                 0                       # What write queue length does an incoming req see (Count)
board.memory.mem_ctrl.wrQLenPdf::55                 0                       # What write queue length does an incoming req see (Count)
board.memory.mem_ctrl.wrQLenPdf::56                 0                       # What write queue length does an incoming req see (Count)
board.memory.mem_ctrl.wrQLenPdf::57                 0                       # What write queue length does an incoming req see (Count)
board.memory.mem_ctrl.wrQLenPdf::58                 0                       # What write queue length does an incoming req see (Count)
board.memory.mem_ctrl.wrQLenPdf::59                 0                       # What write queue length does an incoming req see (Count)
board.memory.mem_ctrl.wrQLenPdf::60                 0                       # What write queue length does an incoming req see (Count)
board.memory.mem_ctrl.wrQLenPdf::61                 0                       # What write queue length does an incoming req see (Count)
board.memory.mem_ctrl.wrQLenPdf::62                 0                       # What write queue length does an incoming req see (Count)
board.memory.mem_ctrl.wrQLenPdf::63                 0                       # What write queue length does an incoming req see (Count)
board.memory.mem_ctrl.rdPerTurnAround::samples          137                       # Reads before turning the bus around for writes (Count)
board.memory.mem_ctrl.rdPerTurnAround::mean 102456.306569                       # Reads before turning the bus around for writes (Count)
board.memory.mem_ctrl.rdPerTurnAround::stdev 157319.796139                       # Reads before turning the bus around for writes (Count)
board.memory.mem_ctrl.rdPerTurnAround::0-16383           96     70.07%     70.07% # Reads before turning the bus around for writes (Count)
board.memory.mem_ctrl.rdPerTurnAround::278528-294911            1      0.73%     70.80% # Reads before turning the bus around for writes (Count)
board.memory.mem_ctrl.rdPerTurnAround::311296-327679            4      2.92%     73.72% # Reads before turning the bus around for writes (Count)
board.memory.mem_ctrl.rdPerTurnAround::327680-344063           20     14.60%     88.32% # Reads before turning the bus around for writes (Count)
board.memory.mem_ctrl.rdPerTurnAround::344064-360447           16     11.68%    100.00% # Reads before turning the bus around for writes (Count)
board.memory.mem_ctrl.rdPerTurnAround::total          137                       # Reads before turning the bus around for writes (Count)
board.memory.mem_ctrl.wrPerTurnAround::samples          137                       # Writes before turning the bus around for reads (Count)
board.memory.mem_ctrl.wrPerTurnAround::mean    16.065693                       # Writes before turning the bus around for reads (Count)
board.memory.mem_ctrl.wrPerTurnAround::gmean    16.060767                       # Writes before turning the bus around for reads (Count)
board.memory.mem_ctrl.wrPerTurnAround::stdev     0.423646                       # Writes before turning the bus around for reads (Count)
board.memory.mem_ctrl.wrPerTurnAround::16          133     97.08%     97.08% # Writes before turning the bus around for reads (Count)
board.memory.mem_ctrl.wrPerTurnAround::17            1      0.73%     97.81% # Writes before turning the bus around for reads (Count)
board.memory.mem_ctrl.wrPerTurnAround::18            2      1.46%     99.27% # Writes before turning the bus around for reads (Count)
board.memory.mem_ctrl.wrPerTurnAround::20            1      0.73%    100.00% # Writes before turning the bus around for reads (Count)
board.memory.mem_ctrl.wrPerTurnAround::total          137                       # Writes before turning the bus around for reads (Count)
board.memory.mem_ctrl.bytesReadWrQ          196666304                       # Total number of bytes read from write queue (Byte)
board.memory.mem_ctrl.bytesReadSys          372359644                       # Total read bytes from the system interface side (Byte)
board.memory.mem_ctrl.bytesWrittenSys         8216407                       # Total written bytes from the system interface side (Byte)
board.memory.mem_ctrl.avgRdBWSys         844574245.74030495                       # Average system read bandwidth in Byte/s ((Byte/Second))
board.memory.mem_ctrl.avgWrBWSys         18636191.80149491                       # Average system write bandwidth in Byte/s ((Byte/Second))
board.memory.mem_ctrl.totGap             440884434171                       # Total gap between requests (Tick)
board.memory.mem_ctrl.avgGap                 23020.54                       # Average gap between requests ((Tick/Count))
board.memory.mem_ctrl.requestorReadBytes::processor.cores.core.inst    324136128                       # Per-requestor bytes read from memory (Byte)
board.memory.mem_ctrl.requestorReadBytes::processor.cores.core.data     35930459                       # Per-requestor bytes read from memory (Byte)
board.memory.mem_ctrl.requestorWriteBytes::processor.cores.core.data        14800                       # Per-requestor bytes write to memory (Byte)
board.memory.mem_ctrl.requestorReadRate::processor.cores.core.inst 735195207.735194206238                       # Per-requestor bytes read from memory rate ((Byte/Second))
board.memory.mem_ctrl.requestorReadRate::processor.cores.core.data 81496318.943273976445                       # Per-requestor bytes read from memory rate ((Byte/Second))
board.memory.mem_ctrl.requestorWriteRate::processor.cores.core.data 33568.887064884279                       # Per-requestor bytes write to memory rate ((Byte/Second))
board.memory.mem_ctrl.requestorReadAccesses::processor.cores.core.inst      5064627                       # Per-requestor read serviced memory accesses (Count)
board.memory.mem_ctrl.requestorReadAccesses::processor.cores.core.data     12044857                       # Per-requestor read serviced memory accesses (Count)
board.memory.mem_ctrl.requestorWriteAccesses::processor.cores.core.data      2042304                       # Per-requestor write serviced memory accesses (Count)
board.memory.mem_ctrl.requestorReadTotalLat::processor.cores.core.inst 322635864341                       # Per-requestor read total memory access latency (Tick)
board.memory.mem_ctrl.requestorReadTotalLat::processor.cores.core.data 854599935202                       # Per-requestor read total memory access latency (Tick)
board.memory.mem_ctrl.requestorWriteTotalLat::processor.cores.core.data 10937331614917                       # Per-requestor write total memory access latency (Tick)
board.memory.mem_ctrl.requestorReadAvgLat::processor.cores.core.inst     63703.78                       # Per-requestor read average memory access latency ((Tick/Count))
board.memory.mem_ctrl.requestorReadAvgLat::processor.cores.core.data     70951.44                       # Per-requestor read average memory access latency ((Tick/Count))
board.memory.mem_ctrl.requestorWriteAvgLat::processor.cores.core.data   5355388.63                       # Per-requestor write average memory access latency ((Tick/Count))
board.memory.mem_ctrl.dram.bytesRead::processor.cores.core.inst    324136000                       # Number of bytes read from this memory (Byte)
board.memory.mem_ctrl.dram.bytesRead::processor.cores.core.data     48223516                       # Number of bytes read from this memory (Byte)
board.memory.mem_ctrl.dram.bytesRead::total    372359516                       # Number of bytes read from this memory (Byte)
board.memory.mem_ctrl.dram.bytesInstRead::processor.cores.core.inst    324136000                       # Number of instructions bytes read from this memory (Byte)
board.memory.mem_ctrl.dram.bytesInstRead::total    324136000                       # Number of instructions bytes read from this memory (Byte)
board.memory.mem_ctrl.dram.bytesWritten::processor.cores.core.data      8216407                       # Number of bytes written to this memory (Byte)
board.memory.mem_ctrl.dram.bytesWritten::total      8216407                       # Number of bytes written to this memory (Byte)
board.memory.mem_ctrl.dram.numReads::processor.cores.core.inst      5064625                       # Number of read requests responded to by this memory (Count)
board.memory.mem_ctrl.dram.numReads::processor.cores.core.data     12044857                       # Number of read requests responded to by this memory (Count)
board.memory.mem_ctrl.dram.numReads::total     17109482                       # Number of read requests responded to by this memory (Count)
board.memory.mem_ctrl.dram.numWrites::processor.cores.core.data      2042304                       # Number of write requests responded to by this memory (Count)
board.memory.mem_ctrl.dram.numWrites::total      2042304                       # Number of write requests responded to by this memory (Count)
board.memory.mem_ctrl.dram.bwRead::processor.cores.core.inst    735194917                       # Total read bandwidth from this memory ((Byte/Second))
board.memory.mem_ctrl.dram.bwRead::processor.cores.core.data    109379038                       # Total read bandwidth from this memory ((Byte/Second))
board.memory.mem_ctrl.dram.bwRead::total    844573955                       # Total read bandwidth from this memory ((Byte/Second))
board.memory.mem_ctrl.dram.bwInstRead::processor.cores.core.inst    735194917                       # Instruction read bandwidth from this memory ((Byte/Second))
board.memory.mem_ctrl.dram.bwInstRead::total    735194917                       # Instruction read bandwidth from this memory ((Byte/Second))
board.memory.mem_ctrl.dram.bwWrite::processor.cores.core.data     18636192                       # Write bandwidth from this memory ((Byte/Second))
board.memory.mem_ctrl.dram.bwWrite::total     18636192                       # Write bandwidth from this memory ((Byte/Second))
board.memory.mem_ctrl.dram.bwTotal::processor.cores.core.inst    735194917                       # Total bandwidth to/from this memory ((Byte/Second))
board.memory.mem_ctrl.dram.bwTotal::processor.cores.core.data    128015230                       # Total bandwidth to/from this memory ((Byte/Second))
board.memory.mem_ctrl.dram.bwTotal::total    863210147                       # Total bandwidth to/from this memory ((Byte/Second))
board.memory.mem_ctrl.dram.readBursts        14036573                       # Number of DRAM read bursts (Count)
board.memory.mem_ctrl.dram.writeBursts           2201                       # Number of DRAM write bursts (Count)
board.memory.mem_ctrl.dram.perBankRdBursts::0     11211652                       # Per bank write bursts (Count)
board.memory.mem_ctrl.dram.perBankRdBursts::1        97713                       # Per bank write bursts (Count)
board.memory.mem_ctrl.dram.perBankRdBursts::2        97402                       # Per bank write bursts (Count)
board.memory.mem_ctrl.dram.perBankRdBursts::3       193159                       # Per bank write bursts (Count)
board.memory.mem_ctrl.dram.perBankRdBursts::4       193279                       # Per bank write bursts (Count)
board.memory.mem_ctrl.dram.perBankRdBursts::5       194353                       # Per bank write bursts (Count)
board.memory.mem_ctrl.dram.perBankRdBursts::6       198514                       # Per bank write bursts (Count)
board.memory.mem_ctrl.dram.perBankRdBursts::7       204904                       # Per bank write bursts (Count)
board.memory.mem_ctrl.dram.perBankRdBursts::8       205023                       # Per bank write bursts (Count)
board.memory.mem_ctrl.dram.perBankRdBursts::9       205178                       # Per bank write bursts (Count)
board.memory.mem_ctrl.dram.perBankRdBursts::10       205167                       # Per bank write bursts (Count)
board.memory.mem_ctrl.dram.perBankRdBursts::11       204934                       # Per bank write bursts (Count)
board.memory.mem_ctrl.dram.perBankRdBursts::12       206529                       # Per bank write bursts (Count)
board.memory.mem_ctrl.dram.perBankRdBursts::13       206030                       # Per bank write bursts (Count)
board.memory.mem_ctrl.dram.perBankRdBursts::14       206061                       # Per bank write bursts (Count)
board.memory.mem_ctrl.dram.perBankRdBursts::15       206675                       # Per bank write bursts (Count)
board.memory.mem_ctrl.dram.perBankWrBursts::0          173                       # Per bank write bursts (Count)
board.memory.mem_ctrl.dram.perBankWrBursts::1          108                       # Per bank write bursts (Count)
board.memory.mem_ctrl.dram.perBankWrBursts::2          101                       # Per bank write bursts (Count)
board.memory.mem_ctrl.dram.perBankWrBursts::3          131                       # Per bank write bursts (Count)
board.memory.mem_ctrl.dram.perBankWrBursts::4          130                       # Per bank write bursts (Count)
board.memory.mem_ctrl.dram.perBankWrBursts::5          131                       # Per bank write bursts (Count)
board.memory.mem_ctrl.dram.perBankWrBursts::6          130                       # Per bank write bursts (Count)
board.memory.mem_ctrl.dram.perBankWrBursts::7          130                       # Per bank write bursts (Count)
board.memory.mem_ctrl.dram.perBankWrBursts::8          130                       # Per bank write bursts (Count)
board.memory.mem_ctrl.dram.perBankWrBursts::9          130                       # Per bank write bursts (Count)
board.memory.mem_ctrl.dram.perBankWrBursts::10          130                       # Per bank write bursts (Count)
board.memory.mem_ctrl.dram.perBankWrBursts::11          145                       # Per bank write bursts (Count)
board.memory.mem_ctrl.dram.perBankWrBursts::12          197                       # Per bank write bursts (Count)
board.memory.mem_ctrl.dram.perBankWrBursts::13          143                       # Per bank write bursts (Count)
board.memory.mem_ctrl.dram.perBankWrBursts::14          130                       # Per bank write bursts (Count)
board.memory.mem_ctrl.dram.perBankWrBursts::15          162                       # Per bank write bursts (Count)
board.memory.mem_ctrl.dram.totQLat       914050055793                       # Total ticks spent queuing (Tick)
board.memory.mem_ctrl.dram.totBusLat      70182865000                       # Total ticks spent in databus transfers (Tick)
board.memory.mem_ctrl.dram.totMemAccLat  1177235799543                       # Total ticks spent from burst creation until serviced by the DRAM (Tick)
board.memory.mem_ctrl.dram.avgQLat           65119.18                       # Average queueing delay per DRAM burst ((Tick/Count))
board.memory.mem_ctrl.dram.avgBusLat          5000.00                       # Average bus latency per DRAM burst ((Tick/Count))
board.memory.mem_ctrl.dram.avgMemAccLat      83869.18                       # Average memory access latency per DRAM burst ((Tick/Count))
board.memory.mem_ctrl.dram.readRowHits        5562640                       # Number of row buffer hits during reads (Count)
board.memory.mem_ctrl.dram.writeRowHits          2009                       # Number of row buffer hits during writes (Count)
board.memory.mem_ctrl.dram.readRowHitRate        39.63                       # Row buffer hit rate for reads (Ratio)
board.memory.mem_ctrl.dram.writeRowHitRate        91.28                       # Row buffer hit rate for writes (Ratio)
board.memory.mem_ctrl.dram.bytesPerActivate::samples      8474114                       # Bytes accessed per row activation (Byte)
board.memory.mem_ctrl.dram.bytesPerActivate::mean   106.026363                       # Bytes accessed per row activation (Byte)
board.memory.mem_ctrl.dram.bytesPerActivate::gmean    87.615581                       # Bytes accessed per row activation (Byte)
board.memory.mem_ctrl.dram.bytesPerActivate::stdev   124.616923                       # Bytes accessed per row activation (Byte)
board.memory.mem_ctrl.dram.bytesPerActivate::0-127      5202555     61.39%     61.39% # Bytes accessed per row activation (Byte)
board.memory.mem_ctrl.dram.bytesPerActivate::128-255      3065167     36.17%     97.56% # Bytes accessed per row activation (Byte)
board.memory.mem_ctrl.dram.bytesPerActivate::256-383        23379      0.28%     97.84% # Bytes accessed per row activation (Byte)
board.memory.mem_ctrl.dram.bytesPerActivate::384-511        15783      0.19%     98.03% # Bytes accessed per row activation (Byte)
board.memory.mem_ctrl.dram.bytesPerActivate::512-639        15483      0.18%     98.21% # Bytes accessed per row activation (Byte)
board.memory.mem_ctrl.dram.bytesPerActivate::640-767        14480      0.17%     98.38% # Bytes accessed per row activation (Byte)
board.memory.mem_ctrl.dram.bytesPerActivate::768-895         9509      0.11%     98.49% # Bytes accessed per row activation (Byte)
board.memory.mem_ctrl.dram.bytesPerActivate::896-1023         9358      0.11%     98.60% # Bytes accessed per row activation (Byte)
board.memory.mem_ctrl.dram.bytesPerActivate::1024-1151       118400      1.40%    100.00% # Bytes accessed per row activation (Byte)
board.memory.mem_ctrl.dram.bytesPerActivate::total      8474114                       # Bytes accessed per row activation (Byte)
board.memory.mem_ctrl.dram.bytesRead        898340672                       # Total bytes read (Byte)
board.memory.mem_ctrl.dram.bytesWritten        140864                       # Total bytes written (Byte)
board.memory.mem_ctrl.dram.avgRdBW        2037.587606                       # Average DRAM read bandwidth in MiBytes/s ((Byte/Second))
board.memory.mem_ctrl.dram.avgWrBW           0.319503                       # Average DRAM write bandwidth in MiBytes/s ((Byte/Second))
board.memory.mem_ctrl.dram.peakBW            12800.00                       # Theoretical peak bandwidth in MiByte/s ((Byte/Second))
board.memory.mem_ctrl.dram.busUtil              15.92                       # Data bus utilization in percentage (Ratio)
board.memory.mem_ctrl.dram.busUtilRead          15.92                       # Data bus utilization in percentage for reads (Ratio)
board.memory.mem_ctrl.dram.busUtilWrite          0.00                       # Data bus utilization in percentage for writes (Ratio)
board.memory.mem_ctrl.dram.pageHitRate          39.64                       # Row buffer hit rate, read and write combined (Ratio)
board.memory.mem_ctrl.dram.power_state.pwrStateResidencyTicks::UNDEFINED 440884440744                       # Cumulative time (in ticks) in various power states (Tick)
board.memory.mem_ctrl.dram.rank0.actEnergy  59160940440                       # Energy for activate commands per rank (pJ) (Joule)
board.memory.mem_ctrl.dram.rank0.preEnergy  31444766595                       # Energy for precharge commands per rank (pJ) (Joule)
board.memory.mem_ctrl.dram.rank0.readEnergy  88471568640                       # Energy for read commands per rank (pJ) (Joule)
board.memory.mem_ctrl.dram.rank0.writeEnergy      5397480                       # Energy for write commands per rank (pJ) (Joule)
board.memory.mem_ctrl.dram.rank0.refreshEnergy 34802760720.000008                       # Energy for refresh commands per rank (pJ) (Joule)
board.memory.mem_ctrl.dram.rank0.actBackEnergy 193342860000                       # Energy for active background per rank (pJ) (Joule)
board.memory.mem_ctrl.dram.rank0.preBackEnergy   6484585440                       # Energy for precharge background per rank (pJ) (Joule)
board.memory.mem_ctrl.dram.rank0.actPowerDownEnergy            0                       # Energy for active power-down per rank (pJ) (Joule)
board.memory.mem_ctrl.dram.rank0.prePowerDownEnergy            0                       # Energy for precharge power-down per rank (pJ) (Joule)
board.memory.mem_ctrl.dram.rank0.selfRefreshEnergy            0                       # Energy for self refresh per rank (pJ) (Joule)
board.memory.mem_ctrl.dram.rank0.totalEnergy 413712879315                       # Total energy per rank (pJ) (Joule)
board.memory.mem_ctrl.dram.rank0.averagePower   938.370333                       # Core power per rank (mW) (Watt)
board.memory.mem_ctrl.dram.rank0.totalIdleTime            0                       # Total Idle time Per DRAM Rank (Tick)
board.memory.mem_ctrl.dram.rank0.pwrStateTime::IDLE      4208652                       # Time in different power states (Tick)
board.memory.mem_ctrl.dram.rank0.pwrStateTime::REF  14721980000                       # Time in different power states (Tick)
board.memory.mem_ctrl.dram.rank0.pwrStateTime::SREF            0                       # Time in different power states (Tick)
board.memory.mem_ctrl.dram.rank0.pwrStateTime::PRE_PDN            0                       # Time in different power states (Tick)
board.memory.mem_ctrl.dram.rank0.pwrStateTime::ACT 426158252092                       # Time in different power states (Tick)
board.memory.mem_ctrl.dram.rank0.pwrStateTime::ACT_PDN            0                       # Time in different power states (Tick)
board.memory.mem_ctrl.dram.rank1.actEnergy   1344312060                       # Energy for activate commands per rank (pJ) (Joule)
board.memory.mem_ctrl.dram.rank1.preEnergy    714496035                       # Energy for precharge commands per rank (pJ) (Joule)
board.memory.mem_ctrl.dram.rank1.readEnergy  11749562580                       # Energy for read commands per rank (pJ) (Joule)
board.memory.mem_ctrl.dram.rank1.writeEnergy      6091740                       # Energy for write commands per rank (pJ) (Joule)
board.memory.mem_ctrl.dram.rank1.refreshEnergy 34802760720.000008                       # Energy for refresh commands per rank (pJ) (Joule)
board.memory.mem_ctrl.dram.rank1.actBackEnergy 188677510890                       # Energy for active background per rank (pJ) (Joule)
board.memory.mem_ctrl.dram.rank1.preBackEnergy  10413300480                       # Energy for precharge background per rank (pJ) (Joule)
board.memory.mem_ctrl.dram.rank1.actPowerDownEnergy            0                       # Energy for active power-down per rank (pJ) (Joule)
board.memory.mem_ctrl.dram.rank1.prePowerDownEnergy            0                       # Energy for precharge power-down per rank (pJ) (Joule)
board.memory.mem_ctrl.dram.rank1.selfRefreshEnergy            0                       # Energy for self refresh per rank (pJ) (Joule)
board.memory.mem_ctrl.dram.rank1.totalEnergy 247708034505                       # Total energy per rank (pJ) (Joule)
board.memory.mem_ctrl.dram.rank1.averagePower   561.843448                       # Core power per rank (mW) (Watt)
board.memory.mem_ctrl.dram.rank1.totalIdleTime            0                       # Total Idle time Per DRAM Rank (Tick)
board.memory.mem_ctrl.dram.rank1.pwrStateTime::IDLE  25293498908                       # Time in different power states (Tick)
board.memory.mem_ctrl.dram.rank1.pwrStateTime::REF  14721980000                       # Time in different power states (Tick)
board.memory.mem_ctrl.dram.rank1.pwrStateTime::SREF            0                       # Time in different power states (Tick)
board.memory.mem_ctrl.dram.rank1.pwrStateTime::PRE_PDN            0                       # Time in different power states (Tick)
board.memory.mem_ctrl.dram.rank1.pwrStateTime::ACT 400868961836                       # Time in different power states (Tick)
board.memory.mem_ctrl.dram.rank1.pwrStateTime::ACT_PDN            0                       # Time in different power states (Tick)
board.memory.mem_ctrl.power_state.pwrStateResidencyTicks::UNDEFINED 440884440744                       # Cumulative time (in ticks) in various power states (Tick)
board.processor.cores.core.numCycles       1408576489                       # Number of cpu cycles simulated (Cycle)
board.processor.cores.core.cpi              26.469326                       # CPI: cycles per instruction (core level) ((Cycle/Count))
board.processor.cores.core.ipc               0.037780                       # IPC: instructions per cycle (core level) ((Count/Cycle))
board.processor.cores.core.numWorkItemsStarted            0                       # Number of work items this cpu started (Count)
board.processor.cores.core.numWorkItemsCompleted            0                       # Number of work items this cpu completed (Count)
board.processor.cores.core.instsAdded        62404821                       # Number of instructions added to the IQ (excludes non-spec) (Count)
board.processor.cores.core.nonSpecInstsAdded          114                       # Number of non-speculative instructions added to the IQ (Count)
board.processor.cores.core.instsIssued       66428342                       # Number of instructions issued (Count)
board.processor.cores.core.squashedInstsIssued           40                       # Number of squashed instructions issued (Count)
board.processor.cores.core.squashedInstsExamined        16099                       # Number of squashed instructions iterated over during squash; mainly for profiling (Count)
board.processor.cores.core.squashedOperandsExamined        33494                       # Number of squashed operands that are examined and possibly removed from graph (Count)
board.processor.cores.core.squashedNonSpecRemoved           60                       # Number of squashed non-spec instructions that were removed (Count)
board.processor.cores.core.numIssuedDist::samples    338586931                       # Number of insts issued each cycle (Count)
board.processor.cores.core.numIssuedDist::mean     0.196193                       # Number of insts issued each cycle (Count)
board.processor.cores.core.numIssuedDist::stdev     0.486818                       # Number of insts issued each cycle (Count)
board.processor.cores.core.numIssuedDist::underflows            0      0.00%      0.00% # Number of insts issued each cycle (Count)
board.processor.cores.core.numIssuedDist::0    282495763     83.43%     83.43% # Number of insts issued each cycle (Count)
board.processor.cores.core.numIssuedDist::1     47857734     14.13%     97.57% # Number of insts issued each cycle (Count)
board.processor.cores.core.numIssuedDist::2      7101148      2.10%     99.67% # Number of insts issued each cycle (Count)
board.processor.cores.core.numIssuedDist::3       168264      0.05%     99.72% # Number of insts issued each cycle (Count)
board.processor.cores.core.numIssuedDist::4       959257      0.28%    100.00% # Number of insts issued each cycle (Count)
board.processor.cores.core.numIssuedDist::5         2897      0.00%    100.00% # Number of insts issued each cycle (Count)
board.processor.cores.core.numIssuedDist::6         1109      0.00%    100.00% # Number of insts issued each cycle (Count)
board.processor.cores.core.numIssuedDist::7          719      0.00%    100.00% # Number of insts issued each cycle (Count)
board.processor.cores.core.numIssuedDist::8           40      0.00%    100.00% # Number of insts issued each cycle (Count)
board.processor.cores.core.numIssuedDist::overflows            0      0.00%    100.00% # Number of insts issued each cycle (Count)
board.processor.cores.core.numIssuedDist::min_value            0                       # Number of insts issued each cycle (Count)
board.processor.cores.core.numIssuedDist::max_value            8                       # Number of insts issued each cycle (Count)
board.processor.cores.core.numIssuedDist::total    338586931                       # Number of insts issued each cycle (Count)
board.processor.cores.core.statFuBusy::No_OpClass            0      0.00%      0.00% # attempts to use FU when none available (Count)
board.processor.cores.core.statFuBusy::IntAlu           49      0.81%      0.81% # attempts to use FU when none available (Count)
board.processor.cores.core.statFuBusy::IntMult            0      0.00%      0.81% # attempts to use FU when none available (Count)
board.processor.cores.core.statFuBusy::IntDiv            0      0.00%      0.81% # attempts to use FU when none available (Count)
board.processor.cores.core.statFuBusy::FloatAdd            0      0.00%      0.81% # attempts to use FU when none available (Count)
board.processor.cores.core.statFuBusy::FloatCmp            0      0.00%      0.81% # attempts to use FU when none available (Count)
board.processor.cores.core.statFuBusy::FloatCvt            0      0.00%      0.81% # attempts to use FU when none available (Count)
board.processor.cores.core.statFuBusy::FloatMult            0      0.00%      0.81% # attempts to use FU when none available (Count)
board.processor.cores.core.statFuBusy::FloatMultAcc            0      0.00%      0.81% # attempts to use FU when none available (Count)
board.processor.cores.core.statFuBusy::FloatDiv            0      0.00%      0.81% # attempts to use FU when none available (Count)
board.processor.cores.core.statFuBusy::FloatMisc            0      0.00%      0.81% # attempts to use FU when none available (Count)
board.processor.cores.core.statFuBusy::FloatSqrt            0      0.00%      0.81% # attempts to use FU when none available (Count)
board.processor.cores.core.statFuBusy::SimdAdd            0      0.00%      0.81% # attempts to use FU when none available (Count)
board.processor.cores.core.statFuBusy::SimdAddAcc            0      0.00%      0.81% # attempts to use FU when none available (Count)
board.processor.cores.core.statFuBusy::SimdAlu            9      0.15%      0.96% # attempts to use FU when none available (Count)
board.processor.cores.core.statFuBusy::SimdCmp            0      0.00%      0.96% # attempts to use FU when none available (Count)
board.processor.cores.core.statFuBusy::SimdCvt            0      0.00%      0.96% # attempts to use FU when none available (Count)
board.processor.cores.core.statFuBusy::SimdMisc            0      0.00%      0.96% # attempts to use FU when none available (Count)
board.processor.cores.core.statFuBusy::SimdMult            0      0.00%      0.96% # attempts to use FU when none available (Count)
board.processor.cores.core.statFuBusy::SimdMultAcc            0      0.00%      0.96% # attempts to use FU when none available (Count)
board.processor.cores.core.statFuBusy::SimdMatMultAcc            0      0.00%      0.96% # attempts to use FU when none available (Count)
board.processor.cores.core.statFuBusy::SimdShift            0      0.00%      0.96% # attempts to use FU when none available (Count)
board.processor.cores.core.statFuBusy::SimdShiftAcc            0      0.00%      0.96% # attempts to use FU when none available (Count)
board.processor.cores.core.statFuBusy::SimdDiv            0      0.00%      0.96% # attempts to use FU when none available (Count)
board.processor.cores.core.statFuBusy::SimdSqrt            0      0.00%      0.96% # attempts to use FU when none available (Count)
board.processor.cores.core.statFuBusy::SimdFloatAdd            0      0.00%      0.96% # attempts to use FU when none available (Count)
board.processor.cores.core.statFuBusy::SimdFloatAlu            0      0.00%      0.96% # attempts to use FU when none available (Count)
board.processor.cores.core.statFuBusy::SimdFloatCmp            0      0.00%      0.96% # attempts to use FU when none available (Count)
board.processor.cores.core.statFuBusy::SimdFloatCvt            0      0.00%      0.96% # attempts to use FU when none available (Count)
board.processor.cores.core.statFuBusy::SimdFloatDiv            0      0.00%      0.96% # attempts to use FU when none available (Count)
board.processor.cores.core.statFuBusy::SimdFloatMisc            0      0.00%      0.96% # attempts to use FU when none available (Count)
board.processor.cores.core.statFuBusy::SimdFloatMult            0      0.00%      0.96% # attempts to use FU when none available (Count)
board.processor.cores.core.statFuBusy::SimdFloatMultAcc            0      0.00%      0.96% # attempts to use FU when none available (Count)
board.processor.cores.core.statFuBusy::SimdFloatMatMultAcc            0      0.00%      0.96% # attempts to use FU when none available (Count)
board.processor.cores.core.statFuBusy::SimdFloatSqrt            0      0.00%      0.96% # attempts to use FU when none available (Count)
board.processor.cores.core.statFuBusy::SimdReduceAdd            0      0.00%      0.96% # attempts to use FU when none available (Count)
board.processor.cores.core.statFuBusy::SimdReduceAlu            0      0.00%      0.96% # attempts to use FU when none available (Count)
board.processor.cores.core.statFuBusy::SimdReduceCmp            0      0.00%      0.96% # attempts to use FU when none available (Count)
board.processor.cores.core.statFuBusy::SimdFloatReduceAdd            0      0.00%      0.96% # attempts to use FU when none available (Count)
board.processor.cores.core.statFuBusy::SimdFloatReduceCmp            0      0.00%      0.96% # attempts to use FU when none available (Count)
board.processor.cores.core.statFuBusy::SimdAes            0      0.00%      0.96% # attempts to use FU when none available (Count)
board.processor.cores.core.statFuBusy::SimdAesMix            0      0.00%      0.96% # attempts to use FU when none available (Count)
board.processor.cores.core.statFuBusy::SimdSha1Hash            0      0.00%      0.96% # attempts to use FU when none available (Count)
board.processor.cores.core.statFuBusy::SimdSha1Hash2            0      0.00%      0.96% # attempts to use FU when none available (Count)
board.processor.cores.core.statFuBusy::SimdSha256Hash            0      0.00%      0.96% # attempts to use FU when none available (Count)
board.processor.cores.core.statFuBusy::SimdSha256Hash2            0      0.00%      0.96% # attempts to use FU when none available (Count)
board.processor.cores.core.statFuBusy::SimdShaSigma2            0      0.00%      0.96% # attempts to use FU when none available (Count)
board.processor.cores.core.statFuBusy::SimdShaSigma3            0      0.00%      0.96% # attempts to use FU when none available (Count)
board.processor.cores.core.statFuBusy::SimdPredAlu            0      0.00%      0.96% # attempts to use FU when none available (Count)
board.processor.cores.core.statFuBusy::Matrix            0      0.00%      0.96% # attempts to use FU when none available (Count)
board.processor.cores.core.statFuBusy::MatrixMov            0      0.00%      0.96% # attempts to use FU when none available (Count)
board.processor.cores.core.statFuBusy::MatrixOP            0      0.00%      0.96% # attempts to use FU when none available (Count)
board.processor.cores.core.statFuBusy::MemRead           17      0.28%      1.24% # attempts to use FU when none available (Count)
board.processor.cores.core.statFuBusy::MemWrite           11      0.18%      1.42% # attempts to use FU when none available (Count)
board.processor.cores.core.statFuBusy::FloatMemRead         5934     98.18%     99.60% # attempts to use FU when none available (Count)
board.processor.cores.core.statFuBusy::FloatMemWrite           24      0.40%    100.00% # attempts to use FU when none available (Count)
board.processor.cores.core.statFuBusy::IprAccess            0      0.00%    100.00% # attempts to use FU when none available (Count)
board.processor.cores.core.statFuBusy::InstPrefetch            0      0.00%    100.00% # attempts to use FU when none available (Count)
board.processor.cores.core.statFuBusy::VectorUnitStrideLoad            0      0.00%    100.00% # attempts to use FU when none available (Count)
board.processor.cores.core.statFuBusy::VectorUnitStrideStore            0      0.00%    100.00% # attempts to use FU when none available (Count)
board.processor.cores.core.statFuBusy::VectorUnitStrideMaskLoad            0      0.00%    100.00% # attempts to use FU when none available (Count)
board.processor.cores.core.statFuBusy::VectorUnitStrideMaskStore            0      0.00%    100.00% # attempts to use FU when none available (Count)
board.processor.cores.core.statFuBusy::VectorStridedLoad            0      0.00%    100.00% # attempts to use FU when none available (Count)
board.processor.cores.core.statFuBusy::VectorStridedStore            0      0.00%    100.00% # attempts to use FU when none available (Count)
board.processor.cores.core.statFuBusy::VectorIndexedLoad            0      0.00%    100.00% # attempts to use FU when none available (Count)
board.processor.cores.core.statFuBusy::VectorIndexedStore            0      0.00%    100.00% # attempts to use FU when none available (Count)
board.processor.cores.core.statFuBusy::VectorUnitStrideFaultOnlyFirstLoad            0      0.00%    100.00% # attempts to use FU when none available (Count)
board.processor.cores.core.statFuBusy::VectorWholeRegisterLoad            0      0.00%    100.00% # attempts to use FU when none available (Count)
board.processor.cores.core.statFuBusy::VectorWholeRegisterStore            0      0.00%    100.00% # attempts to use FU when none available (Count)
board.processor.cores.core.statFuBusy::VectorIntegerArith            0      0.00%    100.00% # attempts to use FU when none available (Count)
board.processor.cores.core.statFuBusy::VectorFloatArith            0      0.00%    100.00% # attempts to use FU when none available (Count)
board.processor.cores.core.statFuBusy::VectorFloatConvert            0      0.00%    100.00% # attempts to use FU when none available (Count)
board.processor.cores.core.statFuBusy::VectorIntegerReduce            0      0.00%    100.00% # attempts to use FU when none available (Count)
board.processor.cores.core.statFuBusy::VectorFloatReduce            0      0.00%    100.00% # attempts to use FU when none available (Count)
board.processor.cores.core.statFuBusy::VectorMisc            0      0.00%    100.00% # attempts to use FU when none available (Count)
board.processor.cores.core.statFuBusy::VectorIntegerExtension            0      0.00%    100.00% # attempts to use FU when none available (Count)
board.processor.cores.core.statFuBusy::VectorConfig            0      0.00%    100.00% # attempts to use FU when none available (Count)
board.processor.cores.core.statIssuedInstType_0::No_OpClass          551      0.00%      0.00% # Number of instructions issued per FU type, per thread (Count)
board.processor.cores.core.statIssuedInstType_0::IntAlu     46290197     69.68%     69.69% # Number of instructions issued per FU type, per thread (Count)
board.processor.cores.core.statIssuedInstType_0::IntMult      1000004      1.51%     71.19% # Number of instructions issued per FU type, per thread (Count)
board.processor.cores.core.statIssuedInstType_0::IntDiv           30      0.00%     71.19% # Number of instructions issued per FU type, per thread (Count)
board.processor.cores.core.statIssuedInstType_0::FloatAdd          215      0.00%     71.19% # Number of instructions issued per FU type, per thread (Count)
board.processor.cores.core.statIssuedInstType_0::FloatCmp            0      0.00%     71.19% # Number of instructions issued per FU type, per thread (Count)
board.processor.cores.core.statIssuedInstType_0::FloatCvt            0      0.00%     71.19% # Number of instructions issued per FU type, per thread (Count)
board.processor.cores.core.statIssuedInstType_0::FloatMult            0      0.00%     71.19% # Number of instructions issued per FU type, per thread (Count)
board.processor.cores.core.statIssuedInstType_0::FloatMultAcc            0      0.00%     71.19% # Number of instructions issued per FU type, per thread (Count)
board.processor.cores.core.statIssuedInstType_0::FloatDiv            0      0.00%     71.19% # Number of instructions issued per FU type, per thread (Count)
board.processor.cores.core.statIssuedInstType_0::FloatMisc            0      0.00%     71.19% # Number of instructions issued per FU type, per thread (Count)
board.processor.cores.core.statIssuedInstType_0::FloatSqrt            0      0.00%     71.19% # Number of instructions issued per FU type, per thread (Count)
board.processor.cores.core.statIssuedInstType_0::SimdAdd            8      0.00%     71.19% # Number of instructions issued per FU type, per thread (Count)
board.processor.cores.core.statIssuedInstType_0::SimdAddAcc            0      0.00%     71.19% # Number of instructions issued per FU type, per thread (Count)
board.processor.cores.core.statIssuedInstType_0::SimdAlu          154      0.00%     71.19% # Number of instructions issued per FU type, per thread (Count)
board.processor.cores.core.statIssuedInstType_0::SimdCmp            0      0.00%     71.19% # Number of instructions issued per FU type, per thread (Count)
board.processor.cores.core.statIssuedInstType_0::SimdCvt           70      0.00%     71.19% # Number of instructions issued per FU type, per thread (Count)
board.processor.cores.core.statIssuedInstType_0::SimdMisc          268      0.00%     71.19% # Number of instructions issued per FU type, per thread (Count)
board.processor.cores.core.statIssuedInstType_0::SimdMult            0      0.00%     71.19% # Number of instructions issued per FU type, per thread (Count)
board.processor.cores.core.statIssuedInstType_0::SimdMultAcc            0      0.00%     71.19% # Number of instructions issued per FU type, per thread (Count)
board.processor.cores.core.statIssuedInstType_0::SimdMatMultAcc            0      0.00%     71.19% # Number of instructions issued per FU type, per thread (Count)
board.processor.cores.core.statIssuedInstType_0::SimdShift            0      0.00%     71.19% # Number of instructions issued per FU type, per thread (Count)
board.processor.cores.core.statIssuedInstType_0::SimdShiftAcc            0      0.00%     71.19% # Number of instructions issued per FU type, per thread (Count)
board.processor.cores.core.statIssuedInstType_0::SimdDiv            0      0.00%     71.19% # Number of instructions issued per FU type, per thread (Count)
board.processor.cores.core.statIssuedInstType_0::SimdSqrt            0      0.00%     71.19% # Number of instructions issued per FU type, per thread (Count)
board.processor.cores.core.statIssuedInstType_0::SimdFloatAdd            0      0.00%     71.19% # Number of instructions issued per FU type, per thread (Count)
board.processor.cores.core.statIssuedInstType_0::SimdFloatAlu            0      0.00%     71.19% # Number of instructions issued per FU type, per thread (Count)
board.processor.cores.core.statIssuedInstType_0::SimdFloatCmp            0      0.00%     71.19% # Number of instructions issued per FU type, per thread (Count)
board.processor.cores.core.statIssuedInstType_0::SimdFloatCvt            0      0.00%     71.19% # Number of instructions issued per FU type, per thread (Count)
board.processor.cores.core.statIssuedInstType_0::SimdFloatDiv            0      0.00%     71.19% # Number of instructions issued per FU type, per thread (Count)
board.processor.cores.core.statIssuedInstType_0::SimdFloatMisc            0      0.00%     71.19% # Number of instructions issued per FU type, per thread (Count)
board.processor.cores.core.statIssuedInstType_0::SimdFloatMult            0      0.00%     71.19% # Number of instructions issued per FU type, per thread (Count)
board.processor.cores.core.statIssuedInstType_0::SimdFloatMultAcc            0      0.00%     71.19% # Number of instructions issued per FU type, per thread (Count)
board.processor.cores.core.statIssuedInstType_0::SimdFloatMatMultAcc            0      0.00%     71.19% # Number of instructions issued per FU type, per thread (Count)
board.processor.cores.core.statIssuedInstType_0::SimdFloatSqrt            0      0.00%     71.19% # Number of instructions issued per FU type, per thread (Count)
board.processor.cores.core.statIssuedInstType_0::SimdReduceAdd            0      0.00%     71.19% # Number of instructions issued per FU type, per thread (Count)
board.processor.cores.core.statIssuedInstType_0::SimdReduceAlu            0      0.00%     71.19% # Number of instructions issued per FU type, per thread (Count)
board.processor.cores.core.statIssuedInstType_0::SimdReduceCmp            0      0.00%     71.19% # Number of instructions issued per FU type, per thread (Count)
board.processor.cores.core.statIssuedInstType_0::SimdFloatReduceAdd            0      0.00%     71.19% # Number of instructions issued per FU type, per thread (Count)
board.processor.cores.core.statIssuedInstType_0::SimdFloatReduceCmp            0      0.00%     71.19% # Number of instructions issued per FU type, per thread (Count)
board.processor.cores.core.statIssuedInstType_0::SimdAes            0      0.00%     71.19% # Number of instructions issued per FU type, per thread (Count)
board.processor.cores.core.statIssuedInstType_0::SimdAesMix            0      0.00%     71.19% # Number of instructions issued per FU type, per thread (Count)
board.processor.cores.core.statIssuedInstType_0::SimdSha1Hash            0      0.00%     71.19% # Number of instructions issued per FU type, per thread (Count)
board.processor.cores.core.statIssuedInstType_0::SimdSha1Hash2            0      0.00%     71.19% # Number of instructions issued per FU type, per thread (Count)
board.processor.cores.core.statIssuedInstType_0::SimdSha256Hash            0      0.00%     71.19% # Number of instructions issued per FU type, per thread (Count)
board.processor.cores.core.statIssuedInstType_0::SimdSha256Hash2            0      0.00%     71.19% # Number of instructions issued per FU type, per thread (Count)
board.processor.cores.core.statIssuedInstType_0::SimdShaSigma2            0      0.00%     71.19% # Number of instructions issued per FU type, per thread (Count)
board.processor.cores.core.statIssuedInstType_0::SimdShaSigma3            0      0.00%     71.19% # Number of instructions issued per FU type, per thread (Count)
board.processor.cores.core.statIssuedInstType_0::SimdPredAlu            0      0.00%     71.19% # Number of instructions issued per FU type, per thread (Count)
board.processor.cores.core.statIssuedInstType_0::Matrix            0      0.00%     71.19% # Number of instructions issued per FU type, per thread (Count)
board.processor.cores.core.statIssuedInstType_0::MatrixMov            0      0.00%     71.19% # Number of instructions issued per FU type, per thread (Count)
board.processor.cores.core.statIssuedInstType_0::MatrixOP            0      0.00%     71.19% # Number of instructions issued per FU type, per thread (Count)
board.processor.cores.core.statIssuedInstType_0::MemRead     17058090     25.68%     96.87% # Number of instructions issued per FU type, per thread (Count)
board.processor.cores.core.statIssuedInstType_0::MemWrite      2032117      3.06%     99.93% # Number of instructions issued per FU type, per thread (Count)
board.processor.cores.core.statIssuedInstType_0::FloatMemRead        36004      0.05%     99.98% # Number of instructions issued per FU type, per thread (Count)
board.processor.cores.core.statIssuedInstType_0::FloatMemWrite        10634      0.02%    100.00% # Number of instructions issued per FU type, per thread (Count)
board.processor.cores.core.statIssuedInstType_0::IprAccess            0      0.00%    100.00% # Number of instructions issued per FU type, per thread (Count)
board.processor.cores.core.statIssuedInstType_0::InstPrefetch            0      0.00%    100.00% # Number of instructions issued per FU type, per thread (Count)
board.processor.cores.core.statIssuedInstType_0::VectorUnitStrideLoad            0      0.00%    100.00% # Number of instructions issued per FU type, per thread (Count)
board.processor.cores.core.statIssuedInstType_0::VectorUnitStrideStore            0      0.00%    100.00% # Number of instructions issued per FU type, per thread (Count)
board.processor.cores.core.statIssuedInstType_0::VectorUnitStrideMaskLoad            0      0.00%    100.00% # Number of instructions issued per FU type, per thread (Count)
board.processor.cores.core.statIssuedInstType_0::VectorUnitStrideMaskStore            0      0.00%    100.00% # Number of instructions issued per FU type, per thread (Count)
board.processor.cores.core.statIssuedInstType_0::VectorStridedLoad            0      0.00%    100.00% # Number of instructions issued per FU type, per thread (Count)
board.processor.cores.core.statIssuedInstType_0::VectorStridedStore            0      0.00%    100.00% # Number of instructions issued per FU type, per thread (Count)
board.processor.cores.core.statIssuedInstType_0::VectorIndexedLoad            0      0.00%    100.00% # Number of instructions issued per FU type, per thread (Count)
board.processor.cores.core.statIssuedInstType_0::VectorIndexedStore            0      0.00%    100.00% # Number of instructions issued per FU type, per thread (Count)
board.processor.cores.core.statIssuedInstType_0::VectorUnitStrideFaultOnlyFirstLoad            0      0.00%    100.00% # Number of instructions issued per FU type, per thread (Count)
board.processor.cores.core.statIssuedInstType_0::VectorWholeRegisterLoad            0      0.00%    100.00% # Number of instructions issued per FU type, per thread (Count)
board.processor.cores.core.statIssuedInstType_0::VectorWholeRegisterStore            0      0.00%    100.00% # Number of instructions issued per FU type, per thread (Count)
board.processor.cores.core.statIssuedInstType_0::VectorIntegerArith            0      0.00%    100.00% # Number of instructions issued per FU type, per thread (Count)
board.processor.cores.core.statIssuedInstType_0::VectorFloatArith            0      0.00%    100.00% # Number of instructions issued per FU type, per thread (Count)
board.processor.cores.core.statIssuedInstType_0::VectorFloatConvert            0      0.00%    100.00% # Number of instructions issued per FU type, per thread (Count)
board.processor.cores.core.statIssuedInstType_0::VectorIntegerReduce            0      0.00%    100.00% # Number of instructions issued per FU type, per thread (Count)
board.processor.cores.core.statIssuedInstType_0::VectorFloatReduce            0      0.00%    100.00% # Number of instructions issued per FU type, per thread (Count)
board.processor.cores.core.statIssuedInstType_0::VectorMisc            0      0.00%    100.00% # Number of instructions issued per FU type, per thread (Count)
board.processor.cores.core.statIssuedInstType_0::VectorIntegerExtension            0      0.00%    100.00% # Number of instructions issued per FU type, per thread (Count)
board.processor.cores.core.statIssuedInstType_0::VectorConfig            0      0.00%    100.00% # Number of instructions issued per FU type, per thread (Count)
board.processor.cores.core.statIssuedInstType_0::total     66428342                       # Number of instructions issued per FU type, per thread (Count)
board.processor.cores.core.issueRate         0.047160                       # Inst issue rate ((Count/Cycle))
board.processor.cores.core.fuBusy                6044                       # FU busy when requested (Count)
board.processor.cores.core.fuBusyRate        0.000091                       # FU busy rate (busy events/executed inst) ((Count/Count))
board.processor.cores.core.intInstQueueReads    471348648                       # Number of integer instruction queue reads (Count)
board.processor.cores.core.intInstQueueWrites     62398693                       # Number of integer instruction queue writes (Count)
board.processor.cores.core.intInstQueueWakeupAccesses     62376286                       # Number of integer instruction queue wakeup accesses (Count)
board.processor.cores.core.fpInstQueueReads       101051                       # Number of floating instruction queue reads (Count)
board.processor.cores.core.fpInstQueueWrites        22395                       # Number of floating instruction queue writes (Count)
board.processor.cores.core.fpInstQueueWakeupAccesses        21666                       # Number of floating instruction queue wakeup accesses (Count)
board.processor.cores.core.vecInstQueueReads            0                       # Number of vector instruction queue reads (Count)
board.processor.cores.core.vecInstQueueWrites            0                       # Number of vector instruction queue writes (Count)
board.processor.cores.core.vecInstQueueWakeupAccesses            0                       # Number of vector instruction queue wakeup accesses (Count)
board.processor.cores.core.intAluAccesses     66380340                       # Number of integer alu accesses (Count)
board.processor.cores.core.fpAluAccesses        53495                       # Number of floating point alu accesses (Count)
board.processor.cores.core.vecAluAccesses            0                       # Number of vector alu accesses (Count)
board.processor.cores.core.numSquashedInsts          149                       # Number of squashed instructions skipped in execute (Count)
board.processor.cores.core.numSwp                   0                       # Number of swp insts executed (Count)
board.processor.cores.core.timesIdled        16950999                       # Number of times that the entire CPU went into an idle state and unscheduled itself (Count)
board.processor.cores.core.idleCycles      1069989558                       # Total number of cycles that the CPU has spent unscheduled due to idling (Cycle)
board.processor.cores.core.MemDepUnit__0.insertedLoads     13065918                       # Number of loads inserted to the mem dependence unit. (Count)
board.processor.cores.core.MemDepUnit__0.insertedStores      2043603                       # Number of stores inserted to the mem dependence unit. (Count)
board.processor.cores.core.MemDepUnit__0.conflictingLoads       106919                       # Number of conflicting loads. (Count)
board.processor.cores.core.MemDepUnit__0.conflictingStores          137                       # Number of conflicting stores. (Count)
board.processor.cores.core.MemDepUnit__1.insertedLoads            0                       # Number of loads inserted to the mem dependence unit. (Count)
board.processor.cores.core.MemDepUnit__1.insertedStores            0                       # Number of stores inserted to the mem dependence unit. (Count)
board.processor.cores.core.MemDepUnit__1.conflictingLoads            0                       # Number of conflicting loads. (Count)
board.processor.cores.core.MemDepUnit__1.conflictingStores            0                       # Number of conflicting stores. (Count)
board.processor.cores.core.MemDepUnit__2.insertedLoads            0                       # Number of loads inserted to the mem dependence unit. (Count)
board.processor.cores.core.MemDepUnit__2.insertedStores            0                       # Number of stores inserted to the mem dependence unit. (Count)
board.processor.cores.core.MemDepUnit__2.conflictingLoads            0                       # Number of conflicting loads. (Count)
board.processor.cores.core.MemDepUnit__2.conflictingStores            0                       # Number of conflicting stores. (Count)
board.processor.cores.core.MemDepUnit__3.insertedLoads            0                       # Number of loads inserted to the mem dependence unit. (Count)
board.processor.cores.core.MemDepUnit__3.insertedStores            0                       # Number of stores inserted to the mem dependence unit. (Count)
board.processor.cores.core.MemDepUnit__3.conflictingLoads            0                       # Number of conflicting loads. (Count)
board.processor.cores.core.MemDepUnit__3.conflictingStores            0                       # Number of conflicting stores. (Count)
board.processor.cores.core.branchPred.lookups      1035191                       # Number of BP lookups (Count)
board.processor.cores.core.branchPred.condPredicted      1024014                       # Number of conditional branches predicted (Count)
[...]
board.processor.cores.core.executeStats0.numCCRegReads     13138543                       # Number of times the CC registers were read (Count)
board.processor.cores.core.executeStats0.numCCRegWrites     45171741                       # Number of times the CC registers were written (Count)
board.processor.cores.core.executeStats0.numFpRegReads        11839                       # Number of times the floating registers were read (Count)
board.processor.cores.core.executeStats0.numFpRegWrites        10973                       # Number of times the floating registers were written (Count)
board.processor.cores.core.executeStats0.numIntRegReads    116521276                       # Number of times the integer registers were read (Count)
board.processor.cores.core.executeStats0.numIntRegWrites     58286240                       # Number of times the integer registers were written (Count)
board.processor.cores.core.executeStats0.numMemRefs     19136793                       # Number of memory refs (Count)
board.processor.cores.core.executeStats0.numMiscRegReads     21205905                       # Number of times the Misc registers were read (Count)
board.processor.cores.core.executeStats0.numVecAluAccesses            0                       # Number of vector alu accesses (Count)
board.processor.cores.core.executeStats0.numDiscardedOps            0                       # Number of ops (including micro ops) which were discarded before commit (Count)
board.processor.cores.core.fetch.predictedBranches      1032707                       # Number of branches that fetch has predicted taken (Count)
board.processor.cores.core.fetch.cycles      10216260                       # Number of cycles fetch has run and was not squashing or blocked (Cycle)
board.processor.cores.core.fetch.squashCycles        22300                       # Number of cycles fetch has spent squashing (Cycle)
board.processor.cores.core.fetch.miscStallCycles           80                       # Number of cycles fetch has spent waiting on interrupts, or bad addresses, or out of MSHRs (Cycle)
board.processor.cores.core.fetch.pendingTrapStallCycles          409                       # Number of stall cycles due to pending traps (Cycle)
board.processor.cores.core.fetch.cacheLines      5064627                       # Number of cache lines fetched (Count)
board.processor.cores.core.fetch.icacheSquashes        10879                       # Number of outstanding Icache misses that were squashed (Count)
board.processor.cores.core.fetch.nisnDist::samples    338586931                       # Number of instructions fetched each cycle (Total) (Count)
board.processor.cores.core.fetch.nisnDist::mean     0.184322                       # Number of instructions fetched each cycle (Total) (Count)
board.processor.cores.core.fetch.nisnDist::stdev     1.167289                       # Number of instructions fetched each cycle (Total) (Count)
board.processor.cores.core.fetch.nisnDist::underflows            0      0.00%      0.00% # Number of instructions fetched each cycle (Total) (Count)
board.processor.cores.core.fetch.nisnDist::0    329515639     97.32%     97.32% # Number of instructions fetched each cycle (Total) (Count)
board.processor.cores.core.fetch.nisnDist::1      1000484      0.30%     97.62% # Number of instructions fetched each cycle (Total) (Count)
board.processor.cores.core.fetch.nisnDist::2        21153      0.01%     97.62% # Number of instructions fetched each cycle (Total) (Count)
board.processor.cores.core.fetch.nisnDist::3          890      0.00%     97.62% # Number of instructions fetched each cycle (Total) (Count)
board.processor.cores.core.fetch.nisnDist::4          668      0.00%     97.62% # Number of instructions fetched each cycle (Total) (Count)
board.processor.cores.core.fetch.nisnDist::5          637      0.00%     97.62% # Number of instructions fetched each cycle (Total) (Count)
board.processor.cores.core.fetch.nisnDist::6      1010728      0.30%     97.92% # Number of instructions fetched each cycle (Total) (Count)
board.processor.cores.core.fetch.nisnDist::7      1000472      0.30%     98.22% # Number of instructions fetched each cycle (Total) (Count)
board.processor.cores.core.fetch.nisnDist::8      6036260      1.78%    100.00% # Number of instructions fetched each cycle (Total) (Count)
board.processor.cores.core.fetch.nisnDist::overflows            0      0.00%    100.00% # Number of instructions fetched each cycle (Total) (Count)
board.processor.cores.core.fetch.nisnDist::min_value            0                       # Number of instructions fetched each cycle (Total) (Count)
board.processor.cores.core.fetch.nisnDist::max_value            8                       # Number of instructions fetched each cycle (Total) (Count)
board.processor.cores.core.fetch.nisnDist::total    338586931                       # Number of instructions fetched each cycle (Total) (Count)
board.processor.cores.core.fetchStats0.numInsts     53226080                       # Number of instructions fetched (thread level) (Count)
board.processor.cores.core.fetchStats0.numOps            0                       # Number of ops (including micro ops) fetched (thread level) (Count)
board.processor.cores.core.fetchStats0.fetchRate     0.037787                       # Number of inst fetches per cycle ((Count/Cycle))
board.processor.cores.core.fetchStats0.numBranches      1035191                       # Number of branches fetched (Count)
board.processor.cores.core.fetchStats0.branchRate     0.000735                       # Number of branch fetches per cycle (Ratio)
board.processor.cores.core.fetchStats0.icacheStallCycles    328359032                       # ICache total stall cycles (Cycle)
board.processor.cores.core.fetchStats0.numFetchSuspends            0                       # Number of times Execute suspended instruction fetching (Count)
board.processor.cores.core.iew.idleCycles            0                       # Number of cycles IEW is idle (Cycle)
board.processor.cores.core.iew.squashCycles        10847                       # Number of cycles IEW is squashing (Cycle)
board.processor.cores.core.iew.blockCycles         3178                       # Number of cycles IEW is blocking (Cycle)
board.processor.cores.core.iew.unblockCycles       172949                       # Number of cycles IEW is unblocking (Cycle)
board.processor.cores.core.iew.dispatchedInsts     62404935                       # Number of instructions dispatched to IQ (Count)
board.processor.cores.core.iew.dispSquashedInsts            4                       # Number of squashed instructions skipped by dispatch (Count)
board.processor.cores.core.iew.dispLoadInsts     13065918                       # Number of dispatched load instructions (Count)
board.processor.cores.core.iew.dispStoreInsts      2043603                       # Number of dispatched store instructions (Count)
board.processor.cores.core.iew.dispNonSpecInsts           40                       # Number of dispatched non-speculative instructions (Count)
board.processor.cores.core.iew.iqFullEvents           13                       # Number of times the IQ has become full, causing a stall (Count)
board.processor.cores.core.iew.lsqFullEvents       172288                       # Number of times the LSQ has become full, causing a stall (Count)
board.processor.cores.core.iew.memOrderViolationEvents           55                       # Number of memory order violations (Count)
board.processor.cores.core.iew.predictedTakenIncorrect        10174                       # Number of branches that were predicted taken incorrectly (Count)
board.processor.cores.core.iew.predictedNotTakenIncorrect          622                       # Number of branches that were predicted not taken incorrectly (Count)
board.processor.cores.core.iew.branchMispredicts        10796                       # Number of branch mispredicts detected at execute (Count)
board.processor.cores.core.iew.instsToCommit     62398504                       # Cumulative count of insts sent to commit (Count)
board.processor.cores.core.iew.writebackCount     62397952                       # Cumulative count of insts written-back (Count)
board.processor.cores.core.iew.producerInst     57222381                       # Number of instructions producing a value (Count)
board.processor.cores.core.iew.consumerInst    103209256                       # Number of instructions consuming a value (Count)
board.processor.cores.core.iew.wbRate        0.044299                       # Insts written-back per cycle ((Count/Cycle))
board.processor.cores.core.iew.wbFanout      0.554431                       # Average fanout of values written-back ((Count/Count))
board.processor.cores.core.interrupts.clk_domain.clock         5008                       # Clock period in ticks (Tick)
board.processor.cores.core.lsq0.forwLoads      1020125                       # Number of loads that had data forwarded from stores (Count)
board.processor.cores.core.lsq0.squashedLoads         2243                       # Number of loads squashed (Count)
board.processor.cores.core.lsq0.ignoredResponses            0                       # Number of memory responses ignored because the instruction is squashed (Count)
board.processor.cores.core.lsq0.memOrderViolation           55                       # Number of memory ordering violations (Count)
board.processor.cores.core.lsq0.squashedStores         1299                       # Number of stores squashed (Count)
board.processor.cores.core.lsq0.rescheduledLoads            0                       # Number of loads that were rescheduled (Count)
board.processor.cores.core.lsq0.blockedByCache      4011688                       # Number of times an access to memory failed due to the cache being blocked (Count)
board.processor.cores.core.lsq0.loadToUse::samples     13062427                       # Distribution of cycle latency between the first time a load is issued and its completion (Unspecified)
board.processor.cores.core.lsq0.loadToUse::mean   271.754303                       # Distribution of cycle latency between the first time a load is issued and its completion (Unspecified)
board.processor.cores.core.lsq0.loadToUse::stdev   188.753164                       # Distribution of cycle latency between the first time a load is issued and its completion (Unspecified)
board.processor.cores.core.lsq0.loadToUse::0-9      1019989      7.81%      7.81% # Distribution of cycle latency between the first time a load is issued and its completion (Unspecified)
board.processor.cores.core.lsq0.loadToUse::40-49      3072762     23.52%     31.33% # Distribution of cycle latency between the first time a load is issued and its completion (Unspecified)
board.processor.cores.core.lsq0.loadToUse::130-139          405      0.00%     31.34% # Distribution of cycle latency between the first time a load is issued and its completion (Unspecified)
board.processor.cores.core.lsq0.loadToUse::140-149          298      0.00%     31.34% # Distribution of cycle latency between the first time a load is issued and its completion (Unspecified)
board.processor.cores.core.lsq0.loadToUse::150-159          322      0.00%     31.34% # Distribution of cycle latency between the first time a load is issued and its completion (Unspecified)
board.processor.cores.core.lsq0.loadToUse::160-169          386      0.00%     31.34% # Distribution of cycle latency between the first time a load is issued and its completion (Unspecified)
board.processor.cores.core.lsq0.loadToUse::170-179         1289      0.01%     31.35% # Distribution of cycle latency between the first time a load is issued and its completion (Unspecified)
board.processor.cores.core.lsq0.loadToUse::180-189          171      0.00%     31.35% # Distribution of cycle latency between the first time a load is issued and its completion (Unspecified)
board.processor.cores.core.lsq0.loadToUse::190-199          327      0.00%     31.36% # Distribution of cycle latency between the first time a load is issued and its completion (Unspecified)
board.processor.cores.core.lsq0.loadToUse::200-209          107      0.00%     31.36% # Distribution of cycle latency between the first time a load is issued and its completion (Unspecified)
board.processor.cores.core.lsq0.loadToUse::210-219          338      0.00%     31.36% # Distribution of cycle latency between the first time a load is issued and its completion (Unspecified)
board.processor.cores.core.lsq0.loadToUse::220-229          285      0.00%     31.36% # Distribution of cycle latency between the first time a load is issued and its completion (Unspecified)
board.processor.cores.core.lsq0.loadToUse::230-239          242      0.00%     31.36% # Distribution of cycle latency between the first time a load is issued and its completion (Unspecified)
board.processor.cores.core.lsq0.loadToUse::240-249       975821      7.47%     38.83% # Distribution of cycle latency between the first time a load is issued and its completion (Unspecified)
board.processor.cores.core.lsq0.loadToUse::250-259       891291      6.82%     45.66% # Distribution of cycle latency between the first time a load is issued and its completion (Unspecified)
board.processor.cores.core.lsq0.loadToUse::260-269          355      0.00%     45.66% # Distribution of cycle latency between the first time a load is issued and its completion (Unspecified)
board.processor.cores.core.lsq0.loadToUse::270-279          242      0.00%     45.66% # Distribution of cycle latency between the first time a load is issued and its completion (Unspecified)
board.processor.cores.core.lsq0.loadToUse::280-289           94      0.00%     45.66% # Distribution of cycle latency between the first time a load is issued and its completion (Unspecified)
board.processor.cores.core.lsq0.loadToUse::290-299          327      0.00%     45.67% # Distribution of cycle latency between the first time a load is issued and its completion (Unspecified)
board.processor.cores.core.lsq0.loadToUse::overflows      7097376     54.33%    100.00% # Distribution of cycle latency between the first time a load is issued and its completion (Unspecified)
board.processor.cores.core.lsq0.loadToUse::min_value            2                       # Distribution of cycle latency between the first time a load is issued and its completion (Unspecified)
board.processor.cores.core.lsq0.loadToUse::max_value         1571                       # Distribution of cycle latency between the first time a load is issued and its completion (Unspecified)
board.processor.cores.core.lsq0.loadToUse::total     13062427                       # Distribution of cycle latency between the first time a load is issued and its completion (Unspecified)
board.processor.cores.core.mmu.dtb.rdAccesses     13065465                       # TLB accesses on read requests (Count)
board.processor.cores.core.mmu.dtb.wrAccesses      2042748                       # TLB accesses on write requests (Count)
board.processor.cores.core.mmu.dtb.rdMisses          491                       # TLB misses on read requests (Count)
board.processor.cores.core.mmu.dtb.wrMisses           35                       # TLB misses on write requests (Count)
board.processor.cores.core.mmu.dtb.walker.power_state.pwrStateResidencyTicks::UNDEFINED 440884440744                       # Cumulative time (in ticks) in various power states (Tick)
board.processor.cores.core.mmu.itb.rdAccesses            0                       # TLB accesses on read requests (Count)
board.processor.cores.core.mmu.itb.wrAccesses      5064702                       # TLB accesses on write requests (Count)
board.processor.cores.core.mmu.itb.rdMisses            0                       # TLB misses on read requests (Count)
board.processor.cores.core.mmu.itb.wrMisses          137                       # TLB misses on write requests (Count)
board.processor.cores.core.mmu.itb.walker.power_state.pwrStateResidencyTicks::UNDEFINED 440884440744                       # Cumulative time (in ticks) in various power states (Tick)
board.processor.cores.core.power_state.pwrStateResidencyTicks::ON 440884440744                       # Cumulative time (in ticks) in various power states (Tick)
board.processor.cores.core.rename.squashCycles        10847                       # Number of cycles rename is squashing (Cycle)
board.processor.cores.core.rename.idleCycles    329111615                       # Number of cycles rename is idle (Cycle)
board.processor.cores.core.rename.blockCycles       178677                       # Number of cycles rename is blocking (Cycle)
board.processor.cores.core.rename.serializeStallCycles         1964                       # count of cycles rename stalled for serializing inst (Cycle)
board.processor.cores.core.rename.runCycles      9068582                       # Number of cycles rename is running (Cycle)
board.processor.cores.core.rename.unblockCycles       215246                       # Number of cycles rename is unblocking (Cycle)
board.processor.cores.core.rename.renamedInsts     62405262                       # Number of instructions processed by rename (Count)
board.processor.cores.core.rename.ROBFullEvents           47                       # Number of times rename has blocked due to ROB full (Count)
board.processor.cores.core.rename.IQFullEvents          405                       # Number of times rename has blocked due to IQ full (Count)
board.processor.cores.core.rename.LQFullEvents          480                       # Number of times rename has blocked due to LQ full (Count)
board.processor.cores.core.rename.SQFullEvents       213563                       # Number of times rename has blocked due to SQ full (Count)
board.processor.cores.core.rename.renamedOperands    172767216                       # Number of destination operands rename has renamed (Count)
board.processor.cores.core.rename.lookups    262370482                       # Number of register rename lookups that rename has made (Count)
board.processor.cores.core.rename.intLookups    112503826                       # Number of integer rename lookups (Count)
board.processor.cores.core.rename.fpLookups        12059                       # Number of floating rename lookups (Count)
board.processor.cores.core.rename.committedMaps    172735954                       # Number of HB maps that are committed (Count)
board.processor.cores.core.rename.undoneMaps        31253                       # Number of HB maps that are undone due to squashing (Count)
board.processor.cores.core.rename.serializing           37                       # count of serializing insts renamed (Count)
board.processor.cores.core.rename.tempSerializing           37                       # count of temporary serializing insts renamed (Count)
board.processor.cores.core.rename.skidInsts        17971                       # count of insts added to the skid buffer (Count)
board.processor.cores.core.rob.reads        396960144                       # The number of ROB reads (Count)
board.processor.cores.core.rob.writes       124822387                       # The number of ROB writes (Count)
board.processor.cores.core.thread_0.numInsts     53215428                       # Number of Instructions committed (Count)
board.processor.cores.core.thread_0.numOps     62388830                       # Number of Ops committed (Count)
board.processor.cores.core.thread_0.numMemRefs            0                       # Number of Memory References (Count)
board.processor.cores.core.workload.numSyscalls           17                       # Number of system calls (Count)
board.workload.inst.arm                             0                       # number of arm instructions executed (Count)
board.workload.inst.quiesce                         0                       # number of quiesce instructions executed (Count)

---------- End Simulation Statistics   ----------
