
---------- Begin Simulation Statistics ----------
simSeconds                                   0.441142                       # Number of seconds simulated (Second)
simTicks                                 441141919500                       # Number of ticks simulated (Tick)
finalTick                                441141919500                       # Number of ticks from beginning of simulation (restored from checkpoints and never reset) (Tick)
simFreq                                  1000000000000                       # The number of ticks per simulated second ((Tick/Second))
hostSeconds                                    379.76                       # Real time elapsed on the host (Second)
hostTickRate                               1161647205                       # The number of ticks simulated per host second (ticks/s) ((Tick/Second))
hostMemory                                    1184508                       # Number of bytes of host memory used (Byte)
simInsts                                     53215428                       # Number of instructions simulated (Count)
simOps                                       62388830                       # Number of ops (including micro ops) simulated (Count)
hostInstRate                                   140131                       # Simulator instruction rate (inst/s) ((Count/Second))
hostOpRate                                     164287                       # Simulator op (including micro ops) rate (op/s) ((Count/Second))
board.cache_hierarchy.membus.transDist::ReadReq     17109175                       # Transaction distribution (Count)
board.cache_hierarchy.membus.transDist::ReadResp     17109173                       # Transaction distribution (Count)
board.cache_hierarchy.membus.transDist::WriteReq      2042286                       # Transaction distribution (Count)
board.cache_hierarchy.membus.transDist::WriteResp      2042286                       # Transaction distribution (Count)
board.cache_hierarchy.membus.transDist::SoftPFReq         1249                       # Transaction distribution (Count)
board.cache_hierarchy.membus.transDist::SoftPFResp         1249                       # Transaction distribution (Count)
board.cache_hierarchy.membus.transDist::LockedRMWReadReq           18                       # Transaction distribution (Count)
board.cache_hierarchy.membus.transDist::LockedRMWReadResp           18                       # Transaction distribution (Count)
board.cache_hierarchy.membus.transDist::LockedRMWWriteReq           18                       # Transaction distribution (Count)
board.cache_hierarchy.membus.transDist::LockedRMWWriteResp           18                       # Transaction distribution (Count)
board.cache_hierarchy.membus.pktCount_board.processor.cores.core.icache_port::board.memory.mem_ctrl.port     10129262                       # Packet count per connected requestor and responder (Count)
board.cache_hierarchy.membus.pktCount_board.processor.cores.core.icache_port::total     10129262                       # Packet count per connected requestor and responder (Count)
board.cache_hierarchy.membus.pktCount_board.processor.cores.core.dcache_port::board.memory.mem_ctrl.port     28176228                       # Packet count per connected requestor and responder (Count)
board.cache_hierarchy.membus.pktCount_board.processor.cores.core.dcache_port::total     28176228                       # Packet count per connected requestor and responder (Count)
board.cache_hierarchy.membus.pktCount::total     38305490                       # Packet count per connected requestor and responder (Count)
board.cache_hierarchy.membus.pktSize_board.processor.cores.core.icache_port::board.memory.mem_ctrl.port    324136320                       # Cumulative packet size per connected requestor and responder (Byte)
board.cache_hierarchy.membus.pktSize_board.processor.cores.core.icache_port::total    324136320                       # Cumulative packet size per connected requestor and responder (Byte)
board.cache_hierarchy.membus.pktSize_board.processor.cores.core.dcache_port::board.memory.mem_ctrl.port     56443657                       # Cumulative packet size per connected requestor and responder (Byte)
board.cache_hierarchy.membus.pktSize_board.processor.cores.core.dcache_port::total     56443657                       # Cumulative packet size per connected requestor and responder (Byte)
board.cache_hierarchy.membus.pktSize::total    380579977                       # Cumulative packet size per connected requestor and responder (Byte)
board.cache_hierarchy.membus.snoops                 0                       # Total snoops (Count)
board.cache_hierarchy.membus.snoopTraffic            0                       # Total snoop traffic (Byte)
board.cache_hierarchy.membus.snoopFanout::samples     19152751                       # Request fanout histogram (Count)
board.cache_hierarchy.membus.snoopFanout::mean            0                       # Request fanout histogram (Count)
board.cache_hierarchy.membus.snoopFanout::stdev            0                       # Request fanout histogram (Count)
board.cache_hierarchy.membus.snoopFanout::underflows            0      0.00%      0.00% # Request fanout histogram (Count)
board.cache_hierarchy.membus.snoopFanout::0     19152751    100.00%    100.00% # Request fanout histogram (Count)
board.cache_hierarchy.membus.snoopFanout::1            0      0.00%    100.00% # Request fanout histogram (Count)
board.cache_hierarchy.membus.snoopFanout::overflows            0      0.00%    100.00% # Request fanout histogram (Count)
board.cache_hierarchy.membus.snoopFanout::min_value            0                       # Request fanout histogram (Count)
board.cache_hierarchy.membus.snoopFanout::max_value            0                       # Request fanout histogram (Count)
board.cache_hierarchy.membus.snoopFanout::total     19152751                       # Request fanout histogram (Count)
board.cache_hierarchy.membus.badaddr_responder.power_state.pwrStateResidencyTicks::UNDEFINED 441141919500                       # Cumulative time (in ticks) in various power states (Tick)
board.cache_hierarchy.membus.power_state.pwrStateResidencyTicks::UNDEFINED 441141919500                       # Cumulative time (in ticks) in various power states (Tick)
board.cache_hierarchy.membus.reqLayer2.occupancy  10597528000                       # Layer occupancy (ticks) (Tick)
board.cache_hierarchy.membus.reqLayer2.utilization          0.0                       # Layer utilization (Ratio)
board.cache_hierarchy.membus.respLayer0.occupancy   5384442500                       # Layer occupancy (ticks) (Tick)
board.cache_hierarchy.membus.respLayer0.utilization          0.0                       # Layer utilization (Ratio)
board.cache_hierarchy.membus.respLayer1.occupancy  15503535803                       # Layer occupancy (ticks) (Tick)
board.cache_hierarchy.membus.respLayer1.utilization          0.0                       # Layer utilization (Ratio)
board.cache_hierarchy.membus.snoop_filter.totRequests            0                       # Total number of requests made to the snoop filter. (Count)
board.cache_hierarchy.membus.snoop_filter.hitSingleRequests            0                       # Number of requests hitting in the snoop filter with a single holder of the requested data. (Count)
board.cache_hierarchy.membus.snoop_filter.hitMultiRequests            0                       # Number of requests hitting in the snoop filter with multiple (>1) holders of the requested data. (Count)
board.cache_hierarchy.membus.snoop_filter.totSnoops            0                       # Total number of snoops made to the snoop filter. (Count)
board.cache_hierarchy.membus.snoop_filter.hitSingleSnoops            0                       # Number of snoops hitting in the snoop filter with a single holder of the requested data. (Count)
board.cache_hierarchy.membus.snoop_filter.hitMultiSnoops            0                       # Number of snoops hitting in the snoop filter with multiple (>1) holders of the requested data. (Count)
board.clk_domain.clock                            500                       # Clock period in ticks (Tick)
board.clk_domain.voltage_domain.voltage             1                       # Voltage in Volts (Volt)
board.memory.mem_ctrl.avgPriority_processor.cores.core.inst::samples   5064632.00                       # Average QoS priority value for accepted requests (Count)
board.memory.mem_ctrl.avgPriority_processor.cores.core.data::samples   8974188.00                       # Average QoS priority value for accepted requests (Count)
board.memory.mem_ctrl.priorityMinLatency 0.000000018750                       # per QoS priority minimum request to response latency (Second)
board.memory.mem_ctrl.priorityMaxLatency 0.095081503500                       # per QoS priority maximum request to response latency (Second)
board.memory.mem_ctrl.numReadWriteTurnArounds          135                       # Number of turnarounds from READ to WRITE (Count)
board.memory.mem_ctrl.numWriteReadTurnArounds          135                       # Number of turnarounds from WRITE to READ (Count)
board.memory.mem_ctrl.numStayReadState       22341599                       # Number of times bus staying in READ state (Count)
board.memory.mem_ctrl.numStayWriteState          2098                       # Number of times bus staying in WRITE state (Count)
board.memory.mem_ctrl.readReqs               17110442                       # Number of read requests accepted (Count)
board.memory.mem_ctrl.writeReqs               2042304                       # Number of write requests accepted (Count)
board.memory.mem_ctrl.readBursts             17110442                       # Number of controller read bursts, including those serviced by the write queue (Count)
board.memory.mem_ctrl.writeBursts             2042304                       # Number of controller write bursts, including those merged in the write queue (Count)
board.memory.mem_ctrl.servicedByWrQ           3073843                       # Number of controller read bursts serviced by the write queue (Count)
board.memory.mem_ctrl.mergedWrBursts          2040083                       # Number of controller write bursts merged with an existing one (Count)
board.memory.mem_ctrl.neitherReadNorWriteReqs            0                       # Number of requests that are neither read nor write (Count)
board.memory.mem_ctrl.avgRdQLen                  3.78                       # Average read queue length when enqueuing ((Count/Tick))
board.memory.mem_ctrl.avgWrQLen                 25.30                       # Average write queue length when enqueuing ((Count/Tick))
board.memory.mem_ctrl.numRdRetry                    5                       # Number of times read queue was full causing retry (Count)
board.memory.mem_ctrl.numWrRetry                    0                       # Number of times write queue was full causing retry (Count)
board.memory.mem_ctrl.readPktSize::0             1534                       # Read request sizes (log2) (Count)
board.memory.mem_ctrl.readPktSize::1               21                       # Read request sizes (log2) (Count)
board.memory.mem_ctrl.readPktSize::2         12032090                       # Read request sizes (log2) (Count)
board.memory.mem_ctrl.readPktSize::3            12165                       # Read request sizes (log2) (Count)
board.memory.mem_ctrl.readPktSize::4                0                       # Read request sizes (log2) (Count)
board.memory.mem_ctrl.readPktSize::5                0                       # Read request sizes (log2) (Count)
board.memory.mem_ctrl.readPktSize::6          5064632                       # Read request sizes (log2) (Count)
board.memory.mem_ctrl.writePktSize::0              39                       # Write request sizes (log2) (Count)
board.memory.mem_ctrl.writePktSize::1               2                       # Write request sizes (log2) (Count)
board.memory.mem_ctrl.writePktSize::2         2030435                       # Write request sizes (log2) (Count)
board.memory.mem_ctrl.writePktSize::3           11828                       # Write request sizes (log2) (Count)
board.memory.mem_ctrl.writePktSize::4               0                       # Write request sizes (log2) (Count)
board.memory.mem_ctrl.writePktSize::5               0                       # Write request sizes (log2) (Count)
board.memory.mem_ctrl.writePktSize::6               0                       # Write request sizes (log2) (Count)
board.memory.mem_ctrl.rdQLenPdf::0            1050531                       # What read queue length does an incoming req see (Count)
board.memory.mem_ctrl.rdQLenPdf::1            1215853                       # What read queue length does an incoming req see (Count)
board.memory.mem_ctrl.rdQLenPdf::2            5853142                       # What read queue length does an incoming req see (Count)
board.memory.mem_ctrl.rdQLenPdf::3            4936973                       # What read queue length does an incoming req see (Count)
board.memory.mem_ctrl.rdQLenPdf::4             959373                       # What read queue length does an incoming req see (Count)
board.memory.mem_ctrl.rdQLenPdf::5              12034                       # What read queue length does an incoming req see (Count)
board.memory.mem_ctrl.rdQLenPdf::6                763                       # What read queue length does an incoming req see (Count)
board.memory.mem_ctrl.rdQLenPdf::7                678                       # What read queue length does an incoming req see (Count)
board.memory.mem_ctrl.rdQLenPdf::8                646                       # What read queue length does an incoming req see (Count)
board.memory.mem_ctrl.rdQLenPdf::9                633                       # What read queue length does an incoming req see (Count)
board.memory.mem_ctrl.rdQLenPdf::10               626                       # What read queue length does an incoming req see (Count)
board.memory.mem_ctrl.rdQLenPdf::11               628                       # What read queue length does an incoming req see (Count)
board.memory.mem_ctrl.rdQLenPdf::12               631                       # What read queue length does an incoming req see (Count)
board.memory.mem_ctrl.rdQLenPdf::13               644                       # What read queue length does an incoming req see (Count)
board.memory.mem_ctrl.rdQLenPdf::14               868                       # What read queue length does an incoming req see (Count)
board.memory.mem_ctrl.rdQLenPdf::15               640                       # What read queue length does an incoming req see (Count)
board.memory.mem_ctrl.rdQLenPdf::16               638                       # What read queue length does an incoming req see (Count)
board.memory.mem_ctrl.rdQLenPdf::17               637                       # What read queue length does an incoming req see (Count)
board.memory.mem_ctrl.rdQLenPdf::18               403                       # What read queue length does an incoming req see (Count)
board.memory.mem_ctrl.rdQLenPdf::19                24                       # What read queue length does an incoming req see (Count)
board.memory.mem_ctrl.rdQLenPdf::20                37                       # What read queue length does an incoming req see (Count)
board.memory.mem_ctrl.rdQLenPdf::21                19                       # What read queue length does an incoming req see (Count)
board.memory.mem_ctrl.rdQLenPdf::22                19                       # What read queue length does an incoming req see (Count)
board.memory.mem_ctrl.rdQLenPdf::23                20                       # What read queue length does an incoming req see (Count)
board.memory.mem_ctrl.rdQLenPdf::24                35                       # What read queue length does an incoming req see (Count)
board.memory.mem_ctrl.rdQLenPdf::25                32                       # What read queue length does an incoming req see (Count)
board.memory.mem_ctrl.rdQLenPdf::26                24                       # What read queue length does an incoming req see (Count)
board.memory.mem_ctrl.rdQLenPdf::27                12                       # What read queue length does an incoming req see (Count)
board.memory.mem_ctrl.rdQLenPdf::28                11                       # What read queue length does an incoming req see (Count)
board.memory.mem_ctrl.rdQLenPdf::29                 8                       # What read queue length does an incoming req see (Count)
board.memory.mem_ctrl.rdQLenPdf::30                 7                       # What read queue length does an incoming req see (Count)
board.memory.mem_ctrl.rdQLenPdf::31                10                       # What read queue length does an incoming req see (Count)
board.memory.mem_ctrl.wrQLenPdf::0                  1                       # What write queue length does an incoming req see (Count)
board.memory.mem_ctrl.wrQLenPdf::1                  1                       # What write queue length does an incoming req see (Count)
board.memory.mem_ctrl.wrQLenPdf::2                  1                       # What write queue length does an incoming req see (Count)
board.memory.mem_ctrl.wrQLenPdf::3                  1                       # What write queue length does an incoming req see (Count)
board.memory.mem_ctrl.wrQLenPdf::4                  1                       # What write queue length does an incoming req see (Count)
board.memory.mem_ctrl.wrQLenPdf::5                  1                       # What write queue length does an incoming req see (Count)
board.memory.mem_ctrl.wrQLenPdf::6                  1                       # What write queue length does an incoming req see (Count)
board.memory.mem_ctrl.wrQLenPdf::7                  1                       # What write queue length does an incoming req see (Count)
board.memory.mem_ctrl.wrQLenPdf::8                  1                       # What write queue length does an incoming req see (Count)
board.memory.mem_ctrl.wrQLenPdf::9                  1                       # What write queue length does an incoming req see (Count)
board.memory.mem_ctrl.wrQLenPdf::10                 1                       # What write queue length does an incoming req see (Count)
board.memory.mem_ctrl.wrQLenPdf::11                 1                       # What write queue length does an incoming req see (Count)
board.memory.mem_ctrl.wrQLenPdf::12                 1                       # What write queue length does an incoming req see (Count)
board.memory.mem_ctrl.wrQLenPdf::13                 1                       # What write queue length does an incoming req see (Count)
board.memory.mem_ctrl.wrQLenPdf::14                 1                       # What write queue length does an incoming req see (Count)
board.memory.mem_ctrl.wrQLenPdf::15                10                       # What write queue length does an incoming req see (Count)
board.memory.mem_ctrl.wrQLenPdf::16                23                       # What write queue length does an incoming req see (Count)
board.memory.mem_ctrl.wrQLenPdf::17               100                       # What write queue length does an incoming req see (Count)
board.memory.mem_ctrl.wrQLenPdf::18               139                       # What write queue length does an incoming req see (Count)
board.memory.mem_ctrl.wrQLenPdf::19               136                       # What write queue length does an incoming req see (Count)
board.memory.mem_ctrl.wrQLenPdf::20               137                       # What write queue length does an incoming req see (Count)
board.memory.mem_ctrl.wrQLenPdf::21               137                       # What write queue length does an incoming req see (Count)
board.memory.mem_ctrl.wrQLenPdf::22               144                       # What write queue length does an incoming req see (Count)
board.memory.mem_ctrl.wrQLenPdf::23               138                       # What write queue length does an incoming req see (Count)
board.memory.mem_ctrl.wrQLenPdf::24               136                       # What write queue length does an incoming req see (Count)
board.memory.mem_ctrl.wrQLenPdf::25               137                       # What write queue length does an incoming req see (Count)
board.memory.mem_ctrl.wrQLenPdf::26               138                       # What write queue length does an incoming req see (Count)
board.memory.mem_ctrl.wrQLenPdf::27               138                       # What write queue length does an incoming req see (Count)
board.memory.mem_ctrl.wrQLenPdf::28               136                       # What write queue length does an incoming req see (Count)
board.memory.mem_ctrl.wrQLenPdf::29               140                       # What write queue length does an incoming req see (Count)
board.memory.mem_ctrl.wrQLenPdf::30               136                       # What write queue length does an incoming req see (Count)
board.memory.mem_ctrl.wrQLenPdf::31               135                       # What write queue length does an incoming req see (Count)
board.memory.mem_ctrl.wrQLenPdf::32               136                       # What write queue length does an incoming req see (Count)
board.memory.mem_ctrl.wrQLenPdf::33                 4                       # What write queue length does an incoming req see (Count)
board.memory.mem_ctrl.wrQLenPdf::34                 2                       # What write queue length does an incoming req see (Count)
board.memory.mem_ctrl.wrQLenPdf::35                 2                       # What write queue length does an incoming req see (Count)
board.memory.mem_ctrl.wrQLenPdf::36                 2                       # What write queue length does an incoming req see (Count)
board.memory.mem_ctrl.wrQLenPdf::37                 0                       # What write queue length does an incoming req see (Count)
board.memory.mem_ctrl.wrQLenPdf::38                 0                       # What write queue length does an incoming req see (Count)
board.memory.mem_ctrl.wrQLenPdf::39                 0                       # What write queue length does an incoming req see (Count)
board.memory.mem_ctrl.wrQLenPdf::40                 0                       # What write queue length does an incoming req see (Count)
board.memory.mem_ctrl.wrQLenPdf::41                 0                       # What write queue length does an incoming req see (Count)
board.memory.mem_ctrl.wrQLenPdf::42                 0                       # What write queue length does an incoming req see (Count)
board.memory.mem_ctrl.wrQLenPdf::43                 0                       # What write queue length does an incoming req see (Count)
board.memory.mem_ctrl.wrQLenPdf::44                 0                       # What write queue length does an incoming req see (Count)
board.memory.mem_ctrl.wrQLenPdf::45                 0                       # What write queue length does an incoming req see (Count)
board.memory.mem_ctrl.wrQLenPdf::46                 0                       # What write queue length does an incoming req see (Count)
board.memory.mem_ctrl.wrQLenPdf::47                 0                       # What write queue length does an incoming req see (Count)
board.memory.mem_ctrl.wrQLenPdf::48                 0                       # What write queue length does an incoming req see (Count)
board.memory.mem_ctrl.wrQLenPdf::49                 0                       # What write queue length does an incoming req see (Count)
board.memory.mem_ctrl.wrQLenPdf::50                 0                       # What write queue length does an incoming req see (Count)
board.memory.mem_ctrl.wrQLenPdf::51                 0                       # What write queue length does an incoming req see (Count)
board.memory.mem_ctrl.wrQLenPdf::52                 0                       # What write queue length does an incoming req see (Count)
board.memory.mem_ctrl.wrQLenPdf::53                 0                       # What write queue length does an incoming req see (Count)
board.memory.mem_ctrl.wrQLenPdf::54                 0                       # What write queue length does an incoming req see (Count)
board.memory.mem_ctrl.wrQLenPdf::55                 0                       # What write queue length does an incoming req see (Count)
board.memory.mem_ctrl.wrQLenPdf::56                 0                       # What write queue length does an incoming req see (Count)
board.memory.mem_ctrl.wrQLenPdf::57                 0                       # What write queue length does an incoming req see (Count)
board.memory.mem_ctrl.wrQLenPdf::58                 0                       # What write queue length does an incoming req see (Count)
board.memory.mem_ctrl.wrQLenPdf::59                 0                       # What write queue length does an incoming req see (Count)
board.memory.mem_ctrl.wrQLenPdf::60                 0                       # What write queue length does an incoming req see (Count)
board.memory.mem_ctrl.wrQLenPdf::61                 0                       # What write queue length does an incoming req see (Count)
board.memory.mem_ctrl.wrQLenPdf::62                 0                       # What write queue length does an incoming req see (Count)
board.memory.mem_ctrl.wrQLenPdf::63                 0                       # What write queue length does an incoming req see (Count)
board.memory.mem_ctrl.rdPerTurnAround::samples          135                       # Reads before turning the bus around for writes (Count)
board.memory.mem_ctrl.rdPerTurnAround::mean       103972                       # Reads before turning the bus around for writes (Count)
board.memory.mem_ctrl.rdPerTurnAround::stdev 156028.999741                       # Reads before turning the bus around for writes (Count)
board.memory.mem_ctrl.rdPerTurnAround::0-16383           93     68.89%     68.89% # Reads before turning the bus around for writes (Count)
board.memory.mem_ctrl.rdPerTurnAround::147456-163839            1      0.74%     69.63% # Reads before turning the bus around for writes (Count)
board.memory.mem_ctrl.rdPerTurnAround::311296-327679            9      6.67%     76.30% # Reads before turning the bus around for writes (Count)
board.memory.mem_ctrl.rdPerTurnAround::327680-344063           20     14.81%     91.11% # Reads before turning the bus around for writes (Count)
board.memory.mem_ctrl.rdPerTurnAround::344064-360447           12      8.89%    100.00% # Reads before turning the bus around for writes (Count)
board.memory.mem_ctrl.rdPerTurnAround::total          135                       # Reads before turning the bus around for writes (Count)
board.memory.mem_ctrl.wrPerTurnAround::samples          135                       # Writes before turning the bus around for reads (Count)
board.memory.mem_ctrl.wrPerTurnAround::mean    16.229630                       # Writes before turning the bus around for reads (Count)
board.memory.mem_ctrl.wrPerTurnAround::gmean    16.218050                       # Writes before turning the bus around for reads (Count)
board.memory.mem_ctrl.wrPerTurnAround::stdev     0.634114                       # Writes before turning the bus around for reads (Count)
board.memory.mem_ctrl.wrPerTurnAround::16          119     88.15%     88.15% # Writes before turning the bus around for reads (Count)
board.memory.mem_ctrl.wrPerTurnAround::17            1      0.74%     88.89% # Writes before turning the bus around for reads (Count)
board.memory.mem_ctrl.wrPerTurnAround::18           15     11.11%    100.00% # Writes before turning the bus around for reads (Count)
board.memory.mem_ctrl.wrPerTurnAround::total          135                       # Writes before turning the bus around for reads (Count)
board.memory.mem_ctrl.bytesReadWrQ          196725952                       # Total number of bytes read from write queue (Byte)
board.memory.mem_ctrl.bytesReadSys          372363698                       # Total read bytes from the system interface side (Byte)
board.memory.mem_ctrl.bytesWrittenSys         8216407                       # Total written bytes from the system interface side (Byte)
board.memory.mem_ctrl.avgRdBWSys         844090487.75515425                       # Average system read bandwidth in Byte/s ((Byte/Second))
board.memory.mem_ctrl.avgWrBWSys         18625314.52307379                       # Average system write bandwidth in Byte/s ((Byte/Second))
board.memory.mem_ctrl.totGap             441141911500                       # Total gap between requests (Tick)
board.memory.mem_ctrl.avgGap                 23032.83                       # Average gap between requests ((Tick/Count))
board.memory.mem_ctrl.requestorReadBytes::processor.cores.core.inst    324136448                       # Per-requestor bytes read from memory (Byte)
board.memory.mem_ctrl.requestorReadBytes::processor.cores.core.data     35930720                       # Per-requestor bytes read from memory (Byte)
board.memory.mem_ctrl.requestorWriteBytes::processor.cores.core.data        14743                       # Per-requestor bytes write to memory (Byte)
board.memory.mem_ctrl.requestorReadRate::processor.cores.core.inst 734766825.985123872757                       # Per-requestor bytes read from memory rate ((Byte/Second))
board.memory.mem_ctrl.requestorReadRate::processor.cores.core.data 81449344.103876307607                       # Per-requestor bytes read from memory rate ((Byte/Second))
board.memory.mem_ctrl.requestorWriteRate::processor.cores.core.data 33420.083987280203                       # Per-requestor bytes write to memory rate ((Byte/Second))
board.memory.mem_ctrl.requestorReadAccesses::processor.cores.core.inst      5064632                       # Per-requestor read serviced memory accesses (Count)
board.memory.mem_ctrl.requestorReadAccesses::processor.cores.core.data     12045810                       # Per-requestor read serviced memory accesses (Count)
board.memory.mem_ctrl.requestorWriteAccesses::processor.cores.core.data      2042304                       # Per-requestor write serviced memory accesses (Count)
board.memory.mem_ctrl.requestorReadTotalLat::processor.cores.core.inst 312568543000                       # Per-requestor read total memory access latency (Tick)
board.memory.mem_ctrl.requestorReadTotalLat::processor.cores.core.data 843910085250                       # Per-requestor read total memory access latency (Tick)
board.memory.mem_ctrl.requestorWriteTotalLat::processor.cores.core.data 10932600942000                       # Per-requestor write total memory access latency (Tick)
board.memory.mem_ctrl.requestorReadAvgLat::processor.cores.core.inst     61715.94                       # Per-requestor read average memory access latency ((Tick/Count))
board.memory.mem_ctrl.requestorReadAvgLat::processor.cores.core.data     70058.39                       # Per-requestor read average memory access latency ((Tick/Count))
board.memory.mem_ctrl.requestorWriteAvgLat::processor.cores.core.data   5353072.29                       # Per-requestor write average memory access latency ((Tick/Count))
board.memory.mem_ctrl.dram.bytesRead::processor.cores.core.inst    324136320                       # Number of bytes read from this memory (Byte)
board.memory.mem_ctrl.dram.bytesRead::processor.cores.core.data     48227250                       # Number of bytes read from this memory (Byte)
board.memory.mem_ctrl.dram.bytesRead::total    372363570                       # Number of bytes read from this memory (Byte)
board.memory.mem_ctrl.dram.bytesInstRead::processor.cores.core.inst    324136320                       # Number of instructions bytes read from this memory (Byte)
board.memory.mem_ctrl.dram.bytesInstRead::total    324136320                       # Number of instructions bytes read from this memory (Byte)
board.memory.mem_ctrl.dram.bytesWritten::processor.cores.core.data      8216407                       # Number of bytes written to this memory (Byte)
board.memory.mem_ctrl.dram.bytesWritten::total      8216407                       # Number of bytes written to this memory (Byte)
board.memory.mem_ctrl.dram.numReads::processor.cores.core.inst      5064630                       # Number of read requests responded to by this memory (Count)
board.memory.mem_ctrl.dram.numReads::processor.cores.core.data     12045810                       # Number of read requests responded to by this memory (Count)
board.memory.mem_ctrl.dram.numReads::total     17110440                       # Number of read requests responded to by this memory (Count)
board.memory.mem_ctrl.dram.numWrites::processor.cores.core.data      2042304                       # Number of write requests responded to by this memory (Count)
board.memory.mem_ctrl.dram.numWrites::total      2042304                       # Number of write requests responded to by this memory (Count)
board.memory.mem_ctrl.dram.bwRead::processor.cores.core.inst    734766536                       # Total read bandwidth from this memory ((Byte/Second))
board.memory.mem_ctrl.dram.bwRead::processor.cores.core.data    109323662                       # Total read bandwidth from this memory ((Byte/Second))
board.memory.mem_ctrl.dram.bwRead::total    844090198                       # Total read bandwidth from this memory ((Byte/Second))
board.memory.mem_ctrl.dram.bwInstRead::processor.cores.core.inst    734766536                       # Instruction read bandwidth from this memory ((Byte/Second))
board.memory.mem_ctrl.dram.bwInstRead::total    734766536                       # Instruction read bandwidth from this memory ((Byte/Second))
board.memory.mem_ctrl.dram.bwWrite::processor.cores.core.data     18625315                       # Write bandwidth from this memory ((Byte/Second))
board.memory.mem_ctrl.dram.bwWrite::total     18625315                       # Write bandwidth from this memory ((Byte/Second))
board.memory.mem_ctrl.dram.bwTotal::processor.cores.core.inst    734766536                       # Total bandwidth to/from this memory ((Byte/Second))
board.memory.mem_ctrl.dram.bwTotal::processor.cores.core.data    127948976                       # Total bandwidth to/from this memory ((Byte/Second))
board.memory.mem_ctrl.dram.bwTotal::total    862715512                       # Total bandwidth to/from this memory ((Byte/Second))
board.memory.mem_ctrl.dram.readBursts        14036599                       # Number of DRAM read bursts (Count)
board.memory.mem_ctrl.dram.writeBursts           2191                       # Number of DRAM write bursts (Count)
board.memory.mem_ctrl.dram.perBankRdBursts::0     11211713                       # Per bank write bursts (Count)
board.memory.mem_ctrl.dram.perBankRdBursts::1        97728                       # Per bank write bursts (Count)
board.memory.mem_ctrl.dram.perBankRdBursts::2        97404                       # Per bank write bursts (Count)
board.memory.mem_ctrl.dram.perBankRdBursts::3       193159                       # Per bank write bursts (Count)
board.memory.mem_ctrl.dram.perBankRdBursts::4       193277                       # Per bank write bursts (Count)
board.memory.mem_ctrl.dram.perBankRdBursts::5       194355                       # Per bank write bursts (Count)
board.memory.mem_ctrl.dram.perBankRdBursts::6       198514                       # Per bank write bursts (Count)
board.memory.mem_ctrl.dram.perBankRdBursts::7       204907                       # Per bank write bursts (Count)
board.memory.mem_ctrl.dram.perBankRdBursts::8       205022                       # Per bank write bursts (Count)
board.memory.mem_ctrl.dram.perBankRdBursts::9       205178                       # Per bank write bursts (Count)
board.memory.mem_ctrl.dram.perBankRdBursts::10       205168                       # Per bank write bursts (Count)
board.memory.mem_ctrl.dram.perBankRdBursts::11       204908                       # Per bank write bursts (Count)
board.memory.mem_ctrl.dram.perBankRdBursts::12       206523                       # Per bank write bursts (Count)
board.memory.mem_ctrl.dram.perBankRdBursts::13       206029                       # Per bank write bursts (Count)
board.memory.mem_ctrl.dram.perBankRdBursts::14       206060                       # Per bank write bursts (Count)
board.memory.mem_ctrl.dram.perBankRdBursts::15       206654                       # Per bank write bursts (Count)
board.memory.mem_ctrl.dram.perBankWrBursts::0          169                       # Per bank write bursts (Count)
board.memory.mem_ctrl.dram.perBankWrBursts::1          101                       # Per bank write bursts (Count)
board.memory.mem_ctrl.dram.perBankWrBursts::2          105                       # Per bank write bursts (Count)
board.memory.mem_ctrl.dram.perBankWrBursts::3          131                       # Per bank write bursts (Count)
board.memory.mem_ctrl.dram.perBankWrBursts::4          130                       # Per bank write bursts (Count)
board.memory.mem_ctrl.dram.perBankWrBursts::5          131                       # Per bank write bursts (Count)
board.memory.mem_ctrl.dram.perBankWrBursts::6          130                       # Per bank write bursts (Count)
board.memory.mem_ctrl.dram.perBankWrBursts::7          130                       # Per bank write bursts (Count)
board.memory.mem_ctrl.dram.perBankWrBursts::8          130                       # Per bank write bursts (Count)
board.memory.mem_ctrl.dram.perBankWrBursts::9          130                       # Per bank write bursts (Count)
board.memory.mem_ctrl.dram.perBankWrBursts::10          130                       # Per bank write bursts (Count)
board.memory.mem_ctrl.dram.perBankWrBursts::11          146                       # Per bank write bursts (Count)
board.memory.mem_ctrl.dram.perBankWrBursts::12          192                       # Per bank write bursts (Count)
board.memory.mem_ctrl.dram.perBankWrBursts::13          141                       # Per bank write bursts (Count)
board.memory.mem_ctrl.dram.perBankWrBursts::14          130                       # Per bank write bursts (Count)
board.memory.mem_ctrl.dram.perBankWrBursts::15          165                       # Per bank write bursts (Count)
board.memory.mem_ctrl.dram.totQLat       893292397000                       # Total ticks spent queuing (Tick)
board.memory.mem_ctrl.dram.totBusLat      70182995000                       # Total ticks spent in databus transfers (Tick)
board.memory.mem_ctrl.dram.totMemAccLat  1156478628250                       # Total ticks spent from burst creation until serviced by the DRAM (Tick)
board.memory.mem_ctrl.dram.avgQLat           63640.23                       # Average queueing delay per DRAM burst ((Tick/Count))
board.memory.mem_ctrl.dram.avgBusLat          5000.00                       # Average bus latency per DRAM burst ((Tick/Count))
board.memory.mem_ctrl.dram.avgMemAccLat      82390.23                       # Average memory access latency per DRAM burst ((Tick/Count))
board.memory.mem_ctrl.dram.readRowHits        5627415                       # Number of row buffer hits during reads (Count)
board.memory.mem_ctrl.dram.writeRowHits          1999                       # Number of row buffer hits during writes (Count)
board.memory.mem_ctrl.dram.readRowHitRate        40.09                       # Row buffer hit rate for reads (Ratio)
board.memory.mem_ctrl.dram.writeRowHitRate        91.24                       # Row buffer hit rate for writes (Ratio)
board.memory.mem_ctrl.dram.bytesPerActivate::samples      8409366                       # Bytes accessed per row activation (Byte)
board.memory.mem_ctrl.dram.bytesPerActivate::mean   106.842836                       # Bytes accessed per row activation (Byte)
board.memory.mem_ctrl.dram.bytesPerActivate::gmean    88.325465                       # Bytes accessed per row activation (Byte)
board.memory.mem_ctrl.dram.bytesPerActivate::stdev   124.987352                       # Bytes accessed per row activation (Byte)
board.memory.mem_ctrl.dram.bytesPerActivate::0-127      5062443     60.20%     60.20% # Bytes accessed per row activation (Byte)
board.memory.mem_ctrl.dram.bytesPerActivate::128-255      3139085     37.33%     97.53% # Bytes accessed per row activation (Byte)
board.memory.mem_ctrl.dram.bytesPerActivate::256-383        24790      0.29%     97.82% # Bytes accessed per row activation (Byte)
board.memory.mem_ctrl.dram.bytesPerActivate::384-511        15792      0.19%     98.01% # Bytes accessed per row activation (Byte)
board.memory.mem_ctrl.dram.bytesPerActivate::512-639        15369      0.18%     98.19% # Bytes accessed per row activation (Byte)
board.memory.mem_ctrl.dram.bytesPerActivate::640-767        14561      0.17%     98.37% # Bytes accessed per row activation (Byte)
board.memory.mem_ctrl.dram.bytesPerActivate::768-895         9490      0.11%     98.48% # Bytes accessed per row activation (Byte)
board.memory.mem_ctrl.dram.bytesPerActivate::896-1023         9397      0.11%     98.59% # Bytes accessed per row activation (Byte)
board.memory.mem_ctrl.dram.bytesPerActivate::1024-1151       118439      1.41%    100.00% # Bytes accessed per row activation (Byte)
board.memory.mem_ctrl.dram.bytesPerActivate::total      8409366                       # Bytes accessed per row activation (Byte)
board.memory.mem_ctrl.dram.bytesRead        898342336                       # Total bytes read (Byte)
board.memory.mem_ctrl.dram.bytesWritten        140224                       # Total bytes written (Byte)
board.memory.mem_ctrl.dram.avgRdBW        2036.402111                       # Average DRAM read bandwidth in MiBytes/s ((Byte/Second))
board.memory.mem_ctrl.dram.avgWrBW           0.317866                       # Average DRAM write bandwidth in MiBytes/s ((Byte/Second))
board.memory.mem_ctrl.dram.peakBW            12800.00                       # Theoretical peak bandwidth in MiByte/s ((Byte/Second))
board.memory.mem_ctrl.dram.busUtil              15.91                       # Data bus utilization in percentage (Ratio)
board.memory.mem_ctrl.dram.busUtilRead          15.91                       # Data bus utilization in percentage for reads (Ratio)
board.memory.mem_ctrl.dram.busUtilWrite          0.00                       # Data bus utilization in percentage for writes (Ratio)
board.memory.mem_ctrl.dram.pageHitRate          40.10                       # Row buffer hit rate, read and write combined (Ratio)
board.memory.mem_ctrl.dram.power_state.pwrStateResidencyTicks::UNDEFINED 441141919500                       # Cumulative time (in ticks) in various power states (Tick)
board.memory.mem_ctrl.dram.rank0.actEnergy  58700203380                       # Energy for activate commands per rank (pJ) (Joule)
board.memory.mem_ctrl.dram.rank0.preEnergy  31199882835                       # Energy for precharge commands per rank (pJ) (Joule)
board.memory.mem_ctrl.dram.rank0.readEnergy  88472146980                       # Energy for read commands per rank (pJ) (Joule)
board.memory.mem_ctrl.dram.rank0.writeEnergy      5360940                       # Energy for write commands per rank (pJ) (Joule)
board.memory.mem_ctrl.dram.rank0.refreshEnergy 34823043840.000008                       # Energy for refresh commands per rank (pJ) (Joule)
board.memory.mem_ctrl.dram.rank0.actBackEnergy 193416301080                       # Energy for active background per rank (pJ) (Joule)
board.memory.mem_ctrl.dram.rank0.preBackEnergy   6521612160                       # Energy for precharge background per rank (pJ) (Joule)
board.memory.mem_ctrl.dram.rank0.actPowerDownEnergy            0                       # Energy for active power-down per rank (pJ) (Joule)
board.memory.mem_ctrl.dram.rank0.prePowerDownEnergy            0                       # Energy for precharge power-down per rank (pJ) (Joule)
board.memory.mem_ctrl.dram.rank0.selfRefreshEnergy            0                       # Energy for self refresh per rank (pJ) (Joule)
board.memory.mem_ctrl.dram.rank0.totalEnergy 413138551215                       # Total energy per rank (pJ) (Joule)
board.memory.mem_ctrl.dram.rank0.averagePower   936.520727                       # Core power per rank (mW) (Watt)
board.memory.mem_ctrl.dram.rank0.totalIdleTime            0                       # Total Idle time Per DRAM Rank (Tick)
board.memory.mem_ctrl.dram.rank0.pwrStateTime::IDLE      3918250                       # Time in different power states (Tick)
board.memory.mem_ctrl.dram.rank0.pwrStateTime::REF  14730560000                       # Time in different power states (Tick)
board.memory.mem_ctrl.dram.rank0.pwrStateTime::SREF            0                       # Time in different power states (Tick)
board.memory.mem_ctrl.dram.rank0.pwrStateTime::PRE_PDN            0                       # Time in different power states (Tick)
board.memory.mem_ctrl.dram.rank0.pwrStateTime::ACT 426407441250                       # Time in different power states (Tick)
board.memory.mem_ctrl.dram.rank0.pwrStateTime::ACT_PDN            0                       # Time in different power states (Tick)
board.memory.mem_ctrl.dram.rank1.actEnergy   1342741260                       # Energy for activate commands per rank (pJ) (Joule)
board.memory.mem_ctrl.dram.rank1.preEnergy    713661135                       # Energy for precharge commands per rank (pJ) (Joule)
board.memory.mem_ctrl.dram.rank1.readEnergy  11749169880                       # Energy for read commands per rank (pJ) (Joule)
board.memory.mem_ctrl.dram.rank1.writeEnergy      6076080                       # Energy for write commands per rank (pJ) (Joule)
board.memory.mem_ctrl.dram.rank1.refreshEnergy 34823043840.000008                       # Energy for refresh commands per rank (pJ) (Joule)
board.memory.mem_ctrl.dram.rank1.actBackEnergy 195042991020                       # Energy for active background per rank (pJ) (Joule)
board.memory.mem_ctrl.dram.rank1.preBackEnergy   5151768000                       # Energy for precharge background per rank (pJ) (Joule)
board.memory.mem_ctrl.dram.rank1.actPowerDownEnergy            0                       # Energy for active power-down per rank (pJ) (Joule)
board.memory.mem_ctrl.dram.rank1.prePowerDownEnergy            0                       # Energy for precharge power-down per rank (pJ) (Joule)
board.memory.mem_ctrl.dram.rank1.selfRefreshEnergy            0                       # Energy for self refresh per rank (pJ) (Joule)
board.memory.mem_ctrl.dram.rank1.totalEnergy 248829451215                       # Total energy per rank (pJ) (Joule)
board.memory.mem_ctrl.dram.rank1.averagePower   564.057597                       # Core power per rank (mW) (Watt)
board.memory.mem_ctrl.dram.rank1.totalIdleTime            0                       # Total Idle time Per DRAM Rank (Tick)
board.memory.mem_ctrl.dram.rank1.pwrStateTime::IDLE  11616378250                       # Time in different power states (Tick)
board.memory.mem_ctrl.dram.rank1.pwrStateTime::REF  14730560000                       # Time in different power states (Tick)
board.memory.mem_ctrl.dram.rank1.pwrStateTime::SREF            0                       # Time in different power states (Tick)
board.memory.mem_ctrl.dram.rank1.pwrStateTime::PRE_PDN            0                       # Time in different power states (Tick)
board.memory.mem_ctrl.dram.rank1.pwrStateTime::ACT 414794981250                       # Time in different power states (Tick)
board.memory.mem_ctrl.dram.rank1.pwrStateTime::ACT_PDN            0                       # Time in different power states (Tick)
board.memory.mem_ctrl.power_state.pwrStateResidencyTicks::UNDEFINED 441141919500                       # Cumulative time (in ticks) in various power states (Tick)
board.processor.cores.core.numCycles        882283840                       # Number of cpu cycles simulated (Cycle)
board.processor.cores.core.cpi              16.579475                       # CPI: cycles per instruction (core level) ((Cycle/Count))
board.processor.cores.core.ipc               0.060316                       # IPC: instructions per cycle (core level) ((Count/Cycle))
board.processor.cores.core.numWorkItemsStarted            0                       # Number of work items this cpu started (Count)
board.processor.cores.core.numWorkItemsCompleted            0                       # Number of work items this cpu completed (Count)
board.processor.cores.core.instsAdded        62404789                       # Number of instructions added to the IQ (excludes non-spec) (Count)
board.processor.cores.core.nonSpecInstsAdded          114                       # Number of non-speculative instructions added to the IQ (Count)
board.processor.cores.core.instsIssued       66428491                       # Number of instructions issued (Count)
board.processor.cores.core.squashedInstsIssued           45                       # Number of squashed instructions issued (Count)
board.processor.cores.core.squashedInstsExamined        16067                       # Number of squashed instructions iterated over during squash; mainly for profiling (Count)
board.processor.cores.core.squashedOperandsExamined        33496                       # Number of squashed operands that are examined and possibly removed from graph (Count)
board.processor.cores.core.squashedNonSpecRemoved           60                       # Number of squashed non-spec instructions that were removed (Count)
board.processor.cores.core.numIssuedDist::samples    299637243                       # Number of insts issued each cycle (Count)
board.processor.cores.core.numIssuedDist::mean     0.221696                       # Number of insts issued each cycle (Count)
board.processor.cores.core.numIssuedDist::stdev     0.511573                       # Number of insts issued each cycle (Count)
board.processor.cores.core.numIssuedDist::underflows            0      0.00%      0.00% # Number of insts issued each cycle (Count)
board.processor.cores.core.numIssuedDist::0    243415602     81.24%     81.24% # Number of insts issued each cycle (Count)
board.processor.cores.core.numIssuedDist::1     48117909     16.06%     97.30% # Number of insts issued each cycle (Count)
board.processor.cores.core.numIssuedDist::2      7037743      2.35%     99.64% # Number of insts issued each cycle (Count)
board.processor.cores.core.numIssuedDist::3        35897      0.01%     99.66% # Number of insts issued each cycle (Count)
board.processor.cores.core.numIssuedDist::4      1025864      0.34%    100.00% # Number of insts issued each cycle (Count)
board.processor.cores.core.numIssuedDist::5         2288      0.00%    100.00% # Number of insts issued each cycle (Count)
board.processor.cores.core.numIssuedDist::6         1112      0.00%    100.00% # Number of insts issued each cycle (Count)
board.processor.cores.core.numIssuedDist::7          787      0.00%    100.00% # Number of insts issued each cycle (Count)
board.processor.cores.core.numIssuedDist::8           41      0.00%    100.00% # Number of insts issued each cycle (Count)
board.processor.cores.core.numIssuedDist::overflows            0      0.00%    100.00% # Number of insts issued each cycle (Count)
board.processor.cores.core.numIssuedDist::min_value            0                       # Number of insts issued each cycle (Count)
board.processor.cores.core.numIssuedDist::max_value            8                       # Number of insts issued each cycle (Count)
board.processor.cores.core.numIssuedDist::total    299637243                       # Number of insts issued each cycle (Count)
board.processor.cores.core.statFuBusy::No_OpClass            0      0.00%      0.00% # attempts to use FU when none available (Count)
board.processor.cores.core.statFuBusy::IntAlu           50      0.81%      0.81% # attempts to use FU when none available (Count)
board.processor.cores.core.statFuBusy::IntMult            0      0.00%      0.81% # attempts to use FU when none available (Count)
board.processor.cores.core.statFuBusy::IntDiv            0      0.00%      0.81% # attempts to use FU when none available (Count)
board.processor.cores.core.statFuBusy::FloatAdd            0      0.00%      0.81% # attempts to use FU when none available (Count)
board.processor.cores.core.statFuBusy::FloatCmp            0      0.00%      0.81% # attempts to use FU when none available (Count)
board.processor.cores.core.statFuBusy::FloatCvt            0      0.00%      0.81% # attempts to use FU when none available (Count)
board.processor.cores.core.statFuBusy::FloatMult            0      0.00%      0.81% # attempts to use FU when none available (Count)
board.processor.cores.core.statFuBusy::FloatMultAcc            0      0.00%      0.81% # attempts to use FU when none available (Count)
board.processor.cores.core.statFuBusy::FloatDiv            0      0.00%      0.81% # attempts to use FU when none available (Count)
board.processor.cores.core.statFuBusy::FloatMisc            0      0.00%      0.81% # attempts to use FU when none available (Count)
board.processor.cores.core.statFuBusy::FloatSqrt            0      0.00%      0.81% # attempts to use FU when none available (Count)
board.processor.cores.core.statFuBusy::SimdAdd            0      0.00%      0.81% # attempts to use FU when none available (Count)
board.processor.cores.core.statFuBusy::SimdAddAcc            0      0.00%      0.81% # attempts to use FU when none available (Count)
board.processor.cores.core.statFuBusy::SimdAlu            9      0.15%      0.95% # attempts to use FU when none available (Count)
board.processor.cores.core.statFuBusy::SimdCmp            0      0.00%      0.95% # attempts to use FU when none available (Count)
board.processor.cores.core.statFuBusy::SimdCvt            0      0.00%      0.95% # attempts to use FU when none available (Count)
board.processor.cores.core.statFuBusy::SimdMisc            0      0.00%      0.95% # attempts to use FU when none available (Count)
board.processor.cores.core.statFuBusy::SimdMult            0      0.00%      0.95% # attempts to use FU when none available (Count)
board.processor.cores.core.statFuBusy::SimdMultAcc            0      0.00%      0.95% # attempts to use FU when none available (Count)
board.processor.cores.core.statFuBusy::SimdMatMultAcc            0      0.00%      0.95% # attempts to use FU when none available (Count)
board.processor.cores.core.statFuBusy::SimdShift            0      0.00%      0.95% # attempts to use FU when none available (Count)
board.processor.cores.core.statFuBusy::SimdShiftAcc            0      0.00%      0.95% # attempts to use FU when none available (Count)
board.processor.cores.core.statFuBusy::SimdDiv            0      0.00%      0.95% # attempts to use FU when none available (Count)
board.processor.cores.core.statFuBusy::SimdSqrt            0      0.00%      0.95% # attempts to use FU when none available (Count)
board.processor.cores.core.statFuBusy::SimdFloatAdd            0      0.00%      0.95% # attempts to use FU when none available (Count)
board.processor.cores.core.statFuBusy::SimdFloatAlu            0      0.00%      0.95% # attempts to use FU when none available (Count)
board.processor.cores.core.statFuBusy::SimdFloatCmp            0      0.00%      0.95% # attempts to use FU when none available (Count)
board.processor.cores.core.statFuBusy::SimdFloatCvt            0      0.00%      0.95% # attempts to use FU when none available (Count)
board.processor.cores.core.statFuBusy::SimdFloatDiv            0      0.00%      0.95% # attempts to use FU when none available (Count)
board.processor.cores.core.statFuBusy::SimdFloatMisc            0      0.00%      0.95% # attempts to use FU when none available (Count)
board.processor.cores.core.statFuBusy::SimdFloatMult            0      0.00%      0.95% # attempts to use FU when none available (Count)
board.processor.cores.core.statFuBusy::SimdFloatMultAcc            0      0.00%      0.95% # attempts to use FU when none available (Count)
board.processor.cores.core.statFuBusy::SimdFloatMatMultAcc            0      0.00%      0.95% # attempts to use FU when none available (Count)
board.processor.cores.core.statFuBusy::SimdFloatSqrt            0      0.00%      0.95% # attempts to use FU when none available (Count)
board.processor.cores.core.statFuBusy::SimdReduceAdd            0      0.00%      0.95% # attempts to use FU when none available (Count)
board.processor.cores.core.statFuBusy::SimdReduceAlu            0      0.00%      0.95% # attempts to use FU when none available (Count)
board.processor.cores.core.statFuBusy::SimdReduceCmp            0      0.00%      0.95% # attempts to use FU when none available (Count)
board.processor.cores.core.statFuBusy::SimdFloatReduceAdd            0      0.00%      0.95% # attempts to use FU when none available (Count)
board.processor.cores.core.statFuBusy::SimdFloatReduceCmp            0      0.00%      0.95% # attempts to use FU when none available (Count)
board.processor.cores.core.statFuBusy::SimdAes            0      0.00%      0.95% # attempts to use FU when none available (Count)
board.processor.cores.core.statFuBusy::SimdAesMix            0      0.00%      0.95% # attempts to use FU when none available (Count)
board.processor.cores.core.statFuBusy::SimdSha1Hash            0      0.00%      0.95% # attempts to use FU when none available (Count)
board.processor.cores.core.statFuBusy::SimdSha1Hash2            0      0.00%      0.95% # attempts to use FU when none available (Count)
board.processor.cores.core.statFuBusy::SimdSha256Hash            0      0.00%      0.95% # attempts to use FU when none available (Count)
board.processor.cores.core.statFuBusy::SimdSha256Hash2            0      0.00%      0.95% # attempts to use FU when none available (Count)
board.processor.cores.core.statFuBusy::SimdShaSigma2            0      0.00%      0.95% # attempts to use FU when none available (Count)
board.processor.cores.core.statFuBusy::SimdShaSigma3            0      0.00%      0.95% # attempts to use FU when none available (Count)
board.processor.cores.core.statFuBusy::SimdPredAlu            0      0.00%      0.95% # attempts to use FU when none available (Count)
board.processor.cores.core.statFuBusy::Matrix            0      0.00%      0.95% # attempts to use FU when none available (Count)
board.processor.cores.core.statFuBusy::MatrixMov            0      0.00%      0.95% # attempts to use FU when none available (Count)
board.processor.cores.core.statFuBusy::MatrixOP            0      0.00%      0.95% # attempts to use FU when none available (Count)
board.processor.cores.core.statFuBusy::MemRead           19      0.31%      1.26% # attempts to use FU when none available (Count)
board.processor.cores.core.statFuBusy::MemWrite            9      0.15%      1.41% # attempts to use FU when none available (Count)
board.processor.cores.core.statFuBusy::FloatMemRead         6073     98.21%     99.61% # attempts to use FU when none available (Count)
board.processor.cores.core.statFuBusy::FloatMemWrite           24      0.39%    100.00% # attempts to use FU when none available (Count)
board.processor.cores.core.statFuBusy::IprAccess            0      0.00%    100.00% # attempts to use FU when none available (Count)
board.processor.cores.core.statFuBusy::InstPrefetch            0      0.00%    100.00% # attempts to use FU when none available (Count)
board.processor.cores.core.statFuBusy::VectorUnitStrideLoad            0      0.00%    100.00% # attempts to use FU when none available (Count)
board.processor.cores.core.statFuBusy::VectorUnitStrideStore            0      0.00%    100.00% # attempts to use FU when none available (Count)
board.processor.cores.core.statFuBusy::VectorUnitStrideMaskLoad            0      0.00%    100.00% # attempts to use FU when none available (Count)
board.processor.cores.core.statFuBusy::VectorUnitStrideMaskStore            0      0.00%    100.00% # attempts to use FU when none available (Count)
board.processor.cores.core.statFuBusy::VectorStridedLoad            0      0.00%    100.00% # attempts to use FU when none available (Count)
board.processor.cores.core.statFuBusy::VectorStridedStore            0      0.00%    100.00% # attempts to use FU when none available (Count)
board.processor.cores.core.statFuBusy::VectorIndexedLoad            0      0.00%    100.00% # attempts to use FU when none available (Count)
board.processor.cores.core.statFuBusy::VectorIndexedStore            0      0.00%    100.00% # attempts to use FU when none available (Count)
board.processor.cores.core.statFuBusy::VectorUnitStrideFaultOnlyFirstLoad            0      0.00%    100.00% # attempts to use FU when none available (Count)
board.processor.cores.core.statFuBusy::VectorWholeRegisterLoad            0      0.00%    100.00% # attempts to use FU when none available (Count)
board.processor.cores.core.statFuBusy::VectorWholeRegisterStore            0      0.00%    100.00% # attempts to use FU when none available (Count)
board.processor.cores.core.statFuBusy::VectorIntegerArith            0      0.00%    100.00% # attempts to use FU when none available (Count)
board.processor.cores.core.statFuBusy::VectorFloatArith            0      0.00%    100.00% # attempts to use FU when none available (Count)
board.processor.cores.core.statFuBusy::VectorFloatConvert            0      0.00%    100.00% # attempts to use FU when none available (Count)
board.processor.cores.core.statFuBusy::VectorIntegerReduce            0      0.00%    100.00% # attempts to use FU when none available (Count)
board.processor.cores.core.statFuBusy::VectorFloatReduce            0      0.00%    100.00% # attempts to use FU when none available (Count)
board.processor.cores.core.statFuBusy::VectorMisc            0      0.00%    100.00% # attempts to use FU when none available (Count)
board.processor.cores.core.statFuBusy::VectorIntegerExtension            0      0.00%    100.00% # attempts to use FU when none available (Count)
board.processor.cores.core.statFuBusy::VectorConfig            0      0.00%    100.00% # attempts to use FU when none available (Count)
board.processor.cores.core.statIssuedInstType_0::No_OpClass          530      0.00%      0.00% # Number of instructions issued per FU type, per thread (Count)
board.processor.cores.core.statIssuedInstType_0::IntAlu     46290188     69.68%     69.69% # Number of instructions issued per FU type, per thread (Count)
board.processor.cores.core.statIssuedInstType_0::IntMult      1000004      1.51%     71.19% # Number of instructions issued per FU type, per thread (Count)
board.processor.cores.core.statIssuedInstType_0::IntDiv           30      0.00%     71.19% # Number of instructions issued per FU type, per thread (Count)
board.processor.cores.core.statIssuedInstType_0::FloatAdd          217      0.00%     71.19% # Number of instructions issued per FU type, per thread (Count)
board.processor.cores.core.statIssuedInstType_0::FloatCmp            0      0.00%     71.19% # Number of instructions issued per FU type, per thread (Count)
board.processor.cores.core.statIssuedInstType_0::FloatCvt            0      0.00%     71.19% # Number of instructions issued per FU type, per thread (Count)
board.processor.cores.core.statIssuedInstType_0::FloatMult            0      0.00%     71.19% # Number of instructions issued per FU type, per thread (Count)
board.processor.cores.core.statIssuedInstType_0::FloatMultAcc            0      0.00%     71.19% # Number of instructions issued per FU type, per thread (Count)
board.processor.cores.core.statIssuedInstType_0::FloatDiv            0      0.00%     71.19% # Number of instructions issued per FU type, per thread (Count)
board.processor.cores.core.statIssuedInstType_0::FloatMisc            0      0.00%     71.19% # Number of instructions issued per FU type, per thread (Count)
board.processor.cores.core.statIssuedInstType_0::FloatSqrt            0      0.00%     71.19% # Number of instructions issued per FU type, per thread (Count)
board.processor.cores.core.statIssuedInstType_0::SimdAdd            8      0.00%     71.19% # Number of instructions issued per FU type, per thread (Count)
board.processor.cores.core.statIssuedInstType_0::SimdAddAcc            0      0.00%     71.19% # Number of instructions issued per FU type, per thread (Count)
board.processor.cores.core.statIssuedInstType_0::SimdAlu          154      0.00%     71.19% # Number of instructions issued per FU type, per thread (Count)
board.processor.cores.core.statIssuedInstType_0::SimdCmp            0      0.00%     71.19% # Number of instructions issued per FU type, per thread (Count)
board.processor.cores.core.statIssuedInstType_0::SimdCvt           70      0.00%     71.19% # Number of instructions issued per FU type, per thread (Count)
board.processor.cores.core.statIssuedInstType_0::SimdMisc          270      0.00%     71.19% # Number of instructions issued per FU type, per thread (Count)
board.processor.cores.core.statIssuedInstType_0::SimdMult            0      0.00%     71.19% # Number of instructions issued per FU type, per thread (Count)
board.processor.cores.core.statIssuedInstType_0::SimdMultAcc            0      0.00%     71.19% # Number of instructions issued per FU type, per thread (Count)
board.processor.cores.core.statIssuedInstType_0::SimdMatMultAcc            0      0.00%     71.19% # Number of instructions issued per FU type, per thread (Count)
board.processor.cores.core.statIssuedInstType_0::SimdShift            0      0.00%     71.19% # Number of instructions issued per FU type, per thread (Count)
board.processor.cores.core.statIssuedInstType_0::SimdShiftAcc            0      0.00%     71.19% # Number of instructions issued per FU type, per thread (Count)
board.processor.cores.core.statIssuedInstType_0::SimdDiv            0      0.00%     71.19% # Number of instructions issued per FU type, per thread (Count)
board.processor.cores.core.statIssuedInstType_0::SimdSqrt            0      0.00%     71.19% # Number of instructions issued per FU type, per thread (Count)
board.processor.cores.core.statIssuedInstType_0::SimdFloatAdd            0      0.00%     71.19% # Number of instructions issued per FU type, per thread (Count)
board.processor.cores.core.statIssuedInstType_0::SimdFloatAlu            0      0.00%     71.19% # Number of instructions issued per FU type, per thread (Count)
board.processor.cores.core.statIssuedInstType_0::SimdFloatCmp            0      0.00%     71.19% # Number of instructions issued per FU type, per thread (Count)
board.processor.cores.core.statIssuedInstType_0::SimdFloatCvt            0      0.00%     71.19% # Number of instructions issued per FU type, per thread (Count)
board.processor.cores.core.statIssuedInstType_0::SimdFloatDiv            0      0.00%     71.19% # Number of instructions issued per FU type, per thread (Count)
board.processor.cores.core.statIssuedInstType_0::SimdFloatMisc            0      0.00%     71.19% # Number of instructions issued per FU type, per thread (Count)
board.processor.cores.core.statIssuedInstType_0::SimdFloatMult            0      0.00%     71.19% # Number of instructions issued per FU type, per thread (Count)
board.processor.cores.core.statIssuedInstType_0::SimdFloatMultAcc            0      0.00%     71.19% # Number of instructions issued per FU type, per thread (Count)
board.processor.cores.core.statIssuedInstType_0::SimdFloatMatMultAcc            0      0.00%     71.19% # Number of instructions issued per FU type, per thread (Count)
board.processor.cores.core.statIssuedInstType_0::SimdFloatSqrt            0      0.00%     71.19% # Number of instructions issued per FU type, per thread (Count)
board.processor.cores.core.statIssuedInstType_0::SimdReduceAdd            0      0.00%     71.19% # Number of instructions issued per FU type, per thread (Count)
board.processor.cores.core.statIssuedInstType_0::SimdReduceAlu            0      0.00%     71.19% # Number of instructions issued per FU type, per thread (Count)
board.processor.cores.core.statIssuedInstType_0::SimdReduceCmp            0      0.00%     71.19% # Number of instructions issued per FU type, per thread (Count)
board.processor.cores.core.statIssuedInstType_0::SimdFloatReduceAdd            0      0.00%     71.19% # Number of instructions issued per FU type, per thread (Count)
board.processor.cores.core.statIssuedInstType_0::SimdFloatReduceCmp            0      0.00%     71.19% # Number of instructions issued per FU type, per thread (Count)
board.processor.cores.core.statIssuedInstType_0::SimdAes            0      0.00%     71.19% # Number of instructions issued per FU type, per thread (Count)
board.processor.cores.core.statIssuedInstType_0::SimdAesMix            0      0.00%     71.19% # Number of instructions issued per FU type, per thread (Count)
board.processor.cores.core.statIssuedInstType_0::SimdSha1Hash            0      0.00%     71.19% # Number of instructions issued per FU type, per thread (Count)
board.processor.cores.core.statIssuedInstType_0::SimdSha1Hash2            0      0.00%     71.19% # Number of instructions issued per FU type, per thread (Count)
board.processor.cores.core.statIssuedInstType_0::SimdSha256Hash            0      0.00%     71.19% # Number of instructions issued per FU type, per thread (Count)
board.processor.cores.core.statIssuedInstType_0::SimdSha256Hash2            0      0.00%     71.19% # Number of instructions issued per FU type, per thread (Count)
board.processor.cores.core.statIssuedInstType_0::SimdShaSigma2            0      0.00%     71.19% # Number of instructions issued per FU type, per thread (Count)
board.processor.cores.core.statIssuedInstType_0::SimdShaSigma3            0      0.00%     71.19% # Number of instructions issued per FU type, per thread (Count)
board.processor.cores.core.statIssuedInstType_0::SimdPredAlu            0      0.00%     71.19% # Number of instructions issued per FU type, per thread (Count)
board.processor.cores.core.statIssuedInstType_0::Matrix            0      0.00%     71.19% # Number of instructions issued per FU type, per thread (Count)
board.processor.cores.core.statIssuedInstType_0::MatrixMov            0      0.00%     71.19% # Number of instructions issued per FU type, per thread (Count)
board.processor.cores.core.statIssuedInstType_0::MatrixOP            0      0.00%     71.19% # Number of instructions issued per FU type, per thread (Count)
board.processor.cores.core.statIssuedInstType_0::MemRead     17057986     25.68%     96.87% # Number of instructions issued per FU type, per thread (Count)
board.processor.cores.core.statIssuedInstType_0::MemWrite      2032106      3.06%     99.93% # Number of instructions issued per FU type, per thread (Count)
board.processor.cores.core.statIssuedInstType_0::FloatMemRead        36295      0.05%     99.98% # Number of instructions issued per FU type, per thread (Count)
board.processor.cores.core.statIssuedInstType_0::FloatMemWrite        10633      0.02%    100.00% # Number of instructions issued per FU type, per thread (Count)
board.processor.cores.core.statIssuedInstType_0::IprAccess            0      0.00%    100.00% # Number of instructions issued per FU type, per thread (Count)
board.processor.cores.core.statIssuedInstType_0::InstPrefetch            0      0.00%    100.00% # Number of instructions issued per FU type, per thread (Count)
board.processor.cores.core.statIssuedInstType_0::VectorUnitStrideLoad            0      0.00%    100.00% # Number of instructions issued per FU type, per thread (Count)
board.processor.cores.core.statIssuedInstType_0::VectorUnitStrideStore            0      0.00%    100.00% # Number of instructions issued per FU type, per thread (Count)
board.processor.cores.core.statIssuedInstType_0::VectorUnitStrideMaskLoad            0      0.00%    100.00% # Number of instructions issued per FU type, per thread (Count)
board.processor.cores.core.statIssuedInstType_0::VectorUnitStrideMaskStore            0      0.00%    100.00% # Number of instructions issued per FU type, per thread (Count)
board.processor.cores.core.statIssuedInstType_0::VectorStridedLoad            0      0.00%    100.00% # Number of instructions issued per FU type, per thread (Count)
board.processor.cores.core.statIssuedInstType_0::VectorStridedStore            0      0.00%    100.00% # Number of instructions issued per FU type, per thread (Count)
board.processor.cores.core.statIssuedInstType_0::VectorIndexedLoad            0      0.00%    100.00% # Number of instructions issued per FU type, per thread (Count)
board.processor.cores.core.statIssuedInstType_0::VectorIndexedStore            0      0.00%    100.00% # Number of instructions issued per FU type, per thread (Count)
board.processor.cores.core.statIssuedInstType_0::VectorUnitStrideFaultOnlyFirstLoad            0      0.00%    100.00% # Number of instructions issued per FU type, per thread (Count)
board.processor.cores.core.statIssuedInstType_0::VectorWholeRegisterLoad            0      0.00%    100.00% # Number of instructions issued per FU type, per thread (Count)
board.processor.cores.core.statIssuedInstType_0::VectorWholeRegisterStore            0      0.00%    100.00% # Number of instructions issued per FU type, per thread (Count)
board.processor.cores.core.statIssuedInstType_0::VectorIntegerArith            0      0.00%    100.00% # Number of instructions issued per FU type, per thread (Count)
board.processor.cores.core.statIssuedInstType_0::VectorFloatArith            0      0.00%    100.00% # Number of instructions issued per FU type, per thread (Count)
board.processor.cores.core.statIssuedInstType_0::VectorFloatConvert            0      0.00%    100.00% # Number of instructions issued per FU type, per thread (Count)
board.processor.cores.core.statIssuedInstType_0::VectorIntegerReduce            0      0.00%    100.00% # Number of instructions issued per FU type, per thread (Count)
board.processor.cores.core.statIssuedInstType_0::VectorFloatReduce            0      0.00%    100.00% # Number of instructions issued per FU type, per thread (Count)
board.processor.cores.core.statIssuedInstType_0::VectorMisc            0      0.00%    100.00% # Number of instructions issued per FU type, per thread (Count)
board.processor.cores.core.statIssuedInstType_0::VectorIntegerExtension            0      0.00%    100.00% # Number of instructions issued per FU type, per thread (Count)
board.processor.cores.core.statIssuedInstType_0::VectorConfig            0      0.00%    100.00% # Number of instructions issued per FU type, per thread (Count)
board.processor.cores.core.statIssuedInstType_0::total     66428491                       # Number of instructions issued per FU type, per thread (Count)
board.processor.cores.core.issueRate         0.075292                       # Inst issue rate ((Count/Cycle))
board.processor.cores.core.fuBusy                6184                       # FU busy when requested (Count)
board.processor.cores.core.fuBusyRate        0.000093                       # FU busy rate (busy events/executed inst) ((Count/Count))
board.processor.cores.core.intInstQueueReads    432398671                       # Number of integer instruction queue reads (Count)
board.processor.cores.core.intInstQueueWrites     62398619                       # Number of integer instruction queue writes (Count)
board.processor.cores.core.intInstQueueWakeupAccesses     62376256                       # Number of integer instruction queue wakeup accesses (Count)
board.processor.cores.core.fpInstQueueReads       101783                       # Number of floating instruction queue reads (Count)
board.processor.cores.core.fpInstQueueWrites        22405                       # Number of floating instruction queue writes (Count)
board.processor.cores.core.fpInstQueueWakeupAccesses        21669                       # Number of floating instruction queue wakeup accesses (Count)
board.processor.cores.core.vecInstQueueReads            0                       # Number of vector instruction queue reads (Count)
board.processor.cores.core.vecInstQueueWrites            0                       # Number of vector instruction queue writes (Count)
board.processor.cores.core.vecInstQueueWakeupAccesses            0                       # Number of vector instruction queue wakeup accesses (Count)
board.processor.cores.core.intAluAccesses     66380216                       # Number of integer alu accesses (Count)
board.processor.cores.core.fpAluAccesses        53929                       # Number of floating point alu accesses (Count)
board.processor.cores.core.vecAluAccesses            0                       # Number of vector alu accesses (Count)
board.processor.cores.core.numSquashedInsts          156                       # Number of squashed instructions skipped in execute (Count)
board.processor.cores.core.numSwp                   0                       # Number of swp insts executed (Count)
board.processor.cores.core.timesIdled        13159492                       # Number of times that the entire CPU went into an idle state and unscheduled itself (Count)
board.processor.cores.core.idleCycles       582646597                       # Total number of cycles that the CPU has spent unscheduled due to idling (Cycle)
board.processor.cores.core.MemDepUnit__0.insertedLoads     13065911                       # Number of loads inserted to the mem dependence unit. (Count)
board.processor.cores.core.MemDepUnit__0.insertedStores      2043598                       # Number of stores inserted to the mem dependence unit. (Count)
board.processor.cores.core.MemDepUnit__0.conflictingLoads        41025                       # Number of conflicting loads. (Count)
board.processor.cores.core.MemDepUnit__0.conflictingStores          123                       # Number of conflicting stores. (Count)
board.processor.cores.core.MemDepUnit__1.insertedLoads            0                       # Number of loads inserted to the mem dependence unit. (Count)
board.processor.cores.core.MemDepUnit__1.insertedStores            0                       # Number of stores inserted to the mem dependence unit. (Count)
board.processor.cores.core.MemDepUnit__1.conflictingLoads            0                       # Number of conflicting loads. (Count)
board.processor.cores.core.MemDepUnit__1.conflictingStores            0                       # Number of conflicting stores. (Count)
board.processor.cores.core.MemDepUnit__2.insertedLoads            0                       # Number of loads inserted to the mem dependence unit. (Count)
board.processor.cores.core.MemDepUnit__2.insertedStores            0                       # Number of stores inserted to the mem dependence unit. (Count)
board.processor.cores.core.MemDepUnit__2.conflictingLoads            0                       # Number of conflicting loads. (Count)
board.processor.cores.core.MemDepUnit__2.conflictingStores            0                       # Number of conflicting stores. (Count)
board.processor.cores.core.MemDepUnit__3.insertedLoads            0                       # Number of loads inserted to the mem dependence unit. (Count)
board.processor.cores.core.MemDepUnit__3.insertedStores            0                       # Number of stores inserted to the mem dependence unit. (Count)
board.processor.cores.core.MemDepUnit__3.conflictingLoads            0                       # Number of conflicting loads. (Count)
board.processor.cores.core.MemDepUnit__3.conflictingStores            0                       # Number of conflicting stores. (Count)
board.processor.cores.core.branchPred.lookups      1035197                       # Number of BP lookups (Count)
board.processor.cores.core.branchPred.condPredicted      1024016                       # Number of conditional branches predicted (Count)
board.processor.cores.core.branchPred.condIncorrect        10990                       # Number of conditional branches incorrect (Count)
[...]
board.processor.cores.core.executeStats0.numMemRefs     19136962                       # Number of memory refs (Count)
board.processor.cores.core.executeStats0.numMiscRegReads     21206066                       # Number of times the Misc registers were read (Count)
board.processor.cores.core.executeStats0.numVecAluAccesses            0                       # Number of vector alu accesses (Count)
board.processor.cores.core.executeStats0.numDiscardedOps            0                       # Number of ops (including micro ops) which were discarded before commit (Count)
board.processor.cores.core.fetch.predictedBranches      1032703                       # Number of branches that fetch has predicted taken (Count)
board.processor.cores.core.fetch.cycles      10227952                       # Number of cycles fetch has run and was not squashing or blocked (Cycle)
board.processor.cores.core.fetch.squashCycles        22252                       # Number of cycles fetch has spent squashing (Cycle)
board.processor.cores.core.fetch.miscStallCycles           55                       # Number of cycles fetch has spent waiting on interrupts, or bad addresses, or out of MSHRs (Cycle)
board.processor.cores.core.fetch.pendingTrapStallCycles          263                       # Number of stall cycles due to pending traps (Cycle)
board.processor.cores.core.fetch.cacheLines      5064632                       # Number of cache lines fetched (Count)
board.processor.cores.core.fetch.icacheSquashes        10880                       # Number of outstanding Icache misses that were squashed (Count)
board.processor.cores.core.fetch.nisnDist::samples    299637243                       # Number of instructions fetched each cycle (Total) (Count)
board.processor.cores.core.fetch.nisnDist::mean     0.208282                       # Number of instructions fetched each cycle (Total) (Count)
board.processor.cores.core.fetch.nisnDist::stdev     1.238826                       # Number of instructions fetched each cycle (Total) (Count)
board.processor.cores.core.fetch.nisnDist::underflows            0      0.00%      0.00% # Number of instructions fetched each cycle (Total) (Count)
board.processor.cores.core.fetch.nisnDist::0    290565893     96.97%     96.97% # Number of instructions fetched each cycle (Total) (Count)
board.processor.cores.core.fetch.nisnDist::1      1000497      0.33%     97.31% # Number of instructions fetched each cycle (Total) (Count)
board.processor.cores.core.fetch.nisnDist::2        21196      0.01%     97.31% # Number of instructions fetched each cycle (Total) (Count)
board.processor.cores.core.fetch.nisnDist::3          822      0.00%     97.31% # Number of instructions fetched each cycle (Total) (Count)
board.processor.cores.core.fetch.nisnDist::4          740      0.00%     97.31% # Number of instructions fetched each cycle (Total) (Count)
board.processor.cores.core.fetch.nisnDist::5          656      0.00%     97.31% # Number of instructions fetched each cycle (Total) (Count)
board.processor.cores.core.fetch.nisnDist::6      1010720      0.34%     97.65% # Number of instructions fetched each cycle (Total) (Count)
board.processor.cores.core.fetch.nisnDist::7      1000518      0.33%     97.99% # Number of instructions fetched each cycle (Total) (Count)
board.processor.cores.core.fetch.nisnDist::8      6036201      2.01%    100.00% # Number of instructions fetched each cycle (Total) (Count)
board.processor.cores.core.fetch.nisnDist::overflows            0      0.00%    100.00% # Number of instructions fetched each cycle (Total) (Count)
board.processor.cores.core.fetch.nisnDist::min_value            0                       # Number of instructions fetched each cycle (Total) (Count)
board.processor.cores.core.fetch.nisnDist::max_value            8                       # Number of instructions fetched each cycle (Total) (Count)
board.processor.cores.core.fetch.nisnDist::total    299637243                       # Number of instructions fetched each cycle (Total) (Count)
board.processor.cores.core.fetchStats0.numInsts     53226122                       # Number of instructions fetched (thread level) (Count)
board.processor.cores.core.fetchStats0.numOps            0                       # Number of ops (including micro ops) fetched (thread level) (Count)
board.processor.cores.core.fetchStats0.fetchRate     0.060328                       # Number of inst fetches per cycle ((Count/Cycle))
board.processor.cores.core.fetchStats0.numBranches      1035197                       # Number of branches fetched (Count)
board.processor.cores.core.fetchStats0.branchRate     0.001173                       # Number of branch fetches per cycle (Ratio)
board.processor.cores.core.fetchStats0.icacheStallCycles    289397847                       # ICache total stall cycles (Cycle)
board.processor.cores.core.fetchStats0.numFetchSuspends            0                       # Number of times Execute suspended instruction fetching (Count)
board.processor.cores.core.iew.idleCycles            0                       # Number of cycles IEW is idle (Cycle)
board.processor.cores.core.iew.squashCycles        10821                       # Number of cycles IEW is squashing (Cycle)
board.processor.cores.core.iew.blockCycles         2477                       # Number of cycles IEW is blocking (Cycle)
board.processor.cores.core.iew.unblockCycles       119563                       # Number of cycles IEW is unblocking (Cycle)
board.processor.cores.core.iew.dispatchedInsts     62404903                       # Number of instructions dispatched to IQ (Count)
board.processor.cores.core.iew.dispSquashedInsts           12                       # Number of squashed instructions skipped by dispatch (Count)
board.processor.cores.core.iew.dispLoadInsts     13065911                       # Number of dispatched load instructions (Count)
board.processor.cores.core.iew.dispStoreInsts      2043598                       # Number of dispatched store instructions (Count)
board.processor.cores.core.iew.dispNonSpecInsts           40                       # Number of dispatched non-speculative instructions (Count)
board.processor.cores.core.iew.iqFullEvents            8                       # Number of times the IQ has become full, causing a stall (Count)
board.processor.cores.core.iew.lsqFullEvents       118923                       # Number of times the LSQ has become full, causing a stall (Count)
board.processor.cores.core.iew.memOrderViolationEvents           55                       # Number of memory order violations (Count)
board.processor.cores.core.iew.predictedTakenIncorrect        10173                       # Number of branches that were predicted taken incorrectly (Count)
board.processor.cores.core.iew.predictedNotTakenIncorrect          600                       # Number of branches that were predicted not taken incorrectly (Count)
board.processor.cores.core.iew.branchMispredicts        10773                       # Number of branch mispredicts detected at execute (Count)
board.processor.cores.core.iew.instsToCommit     62398461                       # Cumulative count of insts sent to commit (Count)
board.processor.cores.core.iew.writebackCount     62397925                       # Cumulative count of insts written-back (Count)
board.processor.cores.core.iew.producerInst     57287026                       # Number of instructions producing a value (Count)
board.processor.cores.core.iew.consumerInst    103396875                       # Number of instructions consuming a value (Count)
board.processor.cores.core.iew.wbRate        0.070723                       # Insts written-back per cycle ((Count/Cycle))
board.processor.cores.core.iew.wbFanout      0.554050                       # Average fanout of values written-back ((Count/Count))
board.processor.cores.core.interrupts.clk_domain.clock         8000                       # Clock period in ticks (Tick)
board.processor.cores.core.lsq0.forwLoads      1019154                       # Number of loads that had data forwarded from stores (Count)
board.processor.cores.core.lsq0.squashedLoads         2236                       # Number of loads squashed (Count)
board.processor.cores.core.lsq0.ignoredResponses            0                       # Number of memory responses ignored because the instruction is squashed (Count)
board.processor.cores.core.lsq0.memOrderViolation           55                       # Number of memory ordering violations (Count)
board.processor.cores.core.lsq0.squashedStores         1294                       # Number of stores squashed (Count)
board.processor.cores.core.lsq0.rescheduledLoads            0                       # Number of loads that were rescheduled (Count)
board.processor.cores.core.lsq0.blockedByCache      4011661                       # Number of times an access to memory failed due to the cache being blocked (Count)
board.processor.cores.core.lsq0.loadToUse::samples     13062427                       # Distribution of cycle latency between the first time a load is issued and its completion (Unspecified)
board.processor.cores.core.lsq0.loadToUse::mean   172.609789                       # Distribution of cycle latency between the first time a load is issued and its completion (Unspecified)
board.processor.cores.core.lsq0.loadToUse::stdev   124.741514                       # Distribution of cycle latency between the first time a load is issued and its completion (Unspecified)
board.processor.cores.core.lsq0.loadToUse::0-9      1019014      7.80%      7.80% # Distribution of cycle latency between the first time a load is issued and its completion (Unspecified)
board.processor.cores.core.lsq0.loadToUse::30-39      3073717     23.53%     31.33% # Distribution of cycle latency between the first time a load is issued and its completion (Unspecified)
board.processor.cores.core.lsq0.loadToUse::80-89          462      0.00%     31.34% # Distribution of cycle latency between the first time a load is issued and its completion (Unspecified)
board.processor.cores.core.lsq0.loadToUse::90-99          470      0.00%     31.34% # Distribution of cycle latency between the first time a load is issued and its completion (Unspecified)
board.processor.cores.core.lsq0.loadToUse::100-109          589      0.00%     31.34% # Distribution of cycle latency between the first time a load is issued and its completion (Unspecified)
board.processor.cores.core.lsq0.loadToUse::110-119        16778      0.13%     31.47% # Distribution of cycle latency between the first time a load is issued and its completion (Unspecified)
board.processor.cores.core.lsq0.loadToUse::120-129         2428      0.02%     31.49% # Distribution of cycle latency between the first time a load is issued and its completion (Unspecified)
board.processor.cores.core.lsq0.loadToUse::130-139          229      0.00%     31.49% # Distribution of cycle latency between the first time a load is issued and its completion (Unspecified)
board.processor.cores.core.lsq0.loadToUse::140-149          632      0.00%     31.50% # Distribution of cycle latency between the first time a load is issued and its completion (Unspecified)
board.processor.cores.core.lsq0.loadToUse::150-159      1010598      7.74%     39.23% # Distribution of cycle latency between the first time a load is issued and its completion (Unspecified)
board.processor.cores.core.lsq0.loadToUse::160-169       989100      7.57%     46.81% # Distribution of cycle latency between the first time a load is issued and its completion (Unspecified)
board.processor.cores.core.lsq0.loadToUse::170-179          415      0.00%     46.81% # Distribution of cycle latency between the first time a load is issued and its completion (Unspecified)
board.processor.cores.core.lsq0.loadToUse::180-189       847862      6.49%     53.30% # Distribution of cycle latency between the first time a load is issued and its completion (Unspecified)
board.processor.cores.core.lsq0.loadToUse::190-199        53240      0.41%     53.71% # Distribution of cycle latency between the first time a load is issued and its completion (Unspecified)
board.processor.cores.core.lsq0.loadToUse::200-209       922789      7.06%     60.77% # Distribution of cycle latency between the first time a load is issued and its completion (Unspecified)
board.processor.cores.core.lsq0.loadToUse::210-219       954031      7.30%     68.08% # Distribution of cycle latency between the first time a load is issued and its completion (Unspecified)
board.processor.cores.core.lsq0.loadToUse::220-229          418      0.00%     68.08% # Distribution of cycle latency between the first time a load is issued and its completion (Unspecified)
board.processor.cores.core.lsq0.loadToUse::230-239          430      0.00%     68.08% # Distribution of cycle latency between the first time a load is issued and its completion (Unspecified)
board.processor.cores.core.lsq0.loadToUse::240-249          442      0.00%     68.09% # Distribution of cycle latency between the first time a load is issued and its completion (Unspecified)
board.processor.cores.core.lsq0.loadToUse::250-259          475      0.00%     68.09% # Distribution of cycle latency between the first time a load is issued and its completion (Unspecified)
board.processor.cores.core.lsq0.loadToUse::260-269       996130      7.63%     75.72% # Distribution of cycle latency between the first time a load is issued and its completion (Unspecified)
board.processor.cores.core.lsq0.loadToUse::270-279        75314      0.58%     76.29% # Distribution of cycle latency between the first time a load is issued and its completion (Unspecified)
board.processor.cores.core.lsq0.loadToUse::280-289      1860815     14.25%     90.54% # Distribution of cycle latency between the first time a load is issued and its completion (Unspecified)
board.processor.cores.core.lsq0.loadToUse::290-299       965352      7.39%     97.93% # Distribution of cycle latency between the first time a load is issued and its completion (Unspecified)
board.processor.cores.core.lsq0.loadToUse::overflows       270697      2.07%    100.00% # Distribution of cycle latency between the first time a load is issued and its completion (Unspecified)
board.processor.cores.core.lsq0.loadToUse::min_value            2                       # Distribution of cycle latency between the first time a load is issued and its completion (Unspecified)
board.processor.cores.core.lsq0.loadToUse::max_value         1050                       # Distribution of cycle latency between the first time a load is issued and its completion (Unspecified)
board.processor.cores.core.lsq0.loadToUse::total     13062427                       # Distribution of cycle latency between the first time a load is issued and its completion (Unspecified)
board.processor.cores.core.mmu.dtb.rdAccesses     13065456                       # TLB accesses on read requests (Count)
board.processor.cores.core.mmu.dtb.wrAccesses      2042738                       # TLB accesses on write requests (Count)
board.processor.cores.core.mmu.dtb.rdMisses          489                       # TLB misses on read requests (Count)
board.processor.cores.core.mmu.dtb.wrMisses           35                       # TLB misses on write requests (Count)
board.processor.cores.core.mmu.dtb.walker.power_state.pwrStateResidencyTicks::UNDEFINED 441141919500                       # Cumulative time (in ticks) in various power states (Tick)
board.processor.cores.core.mmu.itb.rdAccesses            0                       # TLB accesses on read requests (Count)
board.processor.cores.core.mmu.itb.wrAccesses      5064681                       # TLB accesses on write requests (Count)
board.processor.cores.core.mmu.itb.rdMisses            0                       # TLB misses on read requests (Count)
board.processor.cores.core.mmu.itb.wrMisses          111                       # TLB misses on write requests (Count)
board.processor.cores.core.mmu.itb.walker.power_state.pwrStateResidencyTicks::UNDEFINED 441141919500                       # Cumulative time (in ticks) in various power states (Tick)
board.processor.cores.core.power_state.pwrStateResidencyTicks::ON 441141919500                       # Cumulative time (in ticks) in various power states (Tick)
board.processor.cores.core.rename.squashCycles        10821                       # Number of cycles rename is squashing (Cycle)
board.processor.cores.core.rename.idleCycles    290262038                       # Number of cycles rename is idle (Cycle)
board.processor.cores.core.rename.blockCycles       123736                       # Number of cycles rename is blocking (Cycle)
board.processor.cores.core.rename.serializeStallCycles         1452                       # count of cycles rename stalled for serializing inst (Cycle)
board.processor.cores.core.rename.runCycles      9068472                       # Number of cycles rename is running (Cycle)
board.processor.cores.core.rename.unblockCycles       170724                       # Number of cycles rename is unblocking (Cycle)
board.processor.cores.core.rename.renamedInsts     62405240                       # Number of instructions processed by rename (Count)
board.processor.cores.core.rename.ROBFullEvents           47                       # Number of times rename has blocked due to ROB full (Count)
board.processor.cores.core.rename.IQFullEvents          402                       # Number of times rename has blocked due to IQ full (Count)
board.processor.cores.core.rename.LQFullEvents         1072                       # Number of times rename has blocked due to LQ full (Count)
board.processor.cores.core.rename.SQFullEvents       168420                       # Number of times rename has blocked due to SQ full (Count)
board.processor.cores.core.rename.renamedOperands    172767216                       # Number of destination operands rename has renamed (Count)
board.processor.cores.core.rename.lookups    262370468                       # Number of register rename lookups that rename has made (Count)
board.processor.cores.core.rename.intLookups    112503814                       # Number of integer rename lookups (Count)
board.processor.cores.core.rename.fpLookups        12064                       # Number of floating rename lookups (Count)
board.processor.cores.core.rename.committedMaps    172735954                       # Number of HB maps that are committed (Count)
board.processor.cores.core.rename.undoneMaps        31253                       # Number of HB maps that are undone due to squashing (Count)
board.processor.cores.core.rename.serializing           37                       # count of serializing insts renamed (Count)
board.processor.cores.core.rename.tempSerializing           37                       # count of temporary serializing insts renamed (Count)
board.processor.cores.core.rename.skidInsts        18585                       # count of insts added to the skid buffer (Count)
board.processor.cores.core.rob.reads        358110200                       # The number of ROB reads (Count)
board.processor.cores.core.rob.writes       124822231                       # The number of ROB writes (Count)
board.processor.cores.core.thread_0.numInsts     53215428                       # Number of Instructions committed (Count)
board.processor.cores.core.thread_0.numOps     62388830                       # Number of Ops committed (Count)
board.processor.cores.core.thread_0.numMemRefs            0                       # Number of Memory References (Count)
board.processor.cores.core.workload.numSyscalls           17                       # Number of system calls (Count)
board.workload.inst.arm                             0                       # number of arm instructions executed (Count)
board.workload.inst.quiesce                         0                       # number of quiesce instructions executed (Count)

---------- End Simulation Statistics   ----------
