
---------- Begin Simulation Statistics ----------
simSeconds                                   0.846209                       # Number of seconds simulated (Second)
simTicks                                 846209475000                       # Number of ticks simulated (Tick)
finalTick                                846209475000                       # Number of ticks from beginning of simulation (restored from checkpoints and never reset) (Tick)
simFreq                                  1000000000000                       # The number of ticks per simulated second ((Tick/Second))
hostSeconds                                    247.91                       # Real time elapsed on the host (Second)
hostTickRate                               3413311200                       # The number of ticks simulated per host second (ticks/s) ((Tick/Second))
hostMemory                                    1181428                       # Number of bytes of host memory used (Byte)
simInsts                                     53215448                       # Number of instructions simulated (Count)
simOps                                       62388879                       # Number of ops (including micro ops) simulated (Count)
hostInstRate                                   214652                       # Simulator instruction rate (inst/s) ((Count/Second))
hostOpRate                                     251655                       # Simulator op (including micro ops) rate (op/s) ((Count/Second))
board.cache_hierarchy.membus.transDist::ReadReq     20140560                       # Transaction distribution (Count)
board.cache_hierarchy.membus.transDist::ReadResp     20140559                       # Transaction distribution (Count)
board.cache_hierarchy.membus.transDist::WriteReq      2042286                       # Transaction distribution (Count)
board.cache_hierarchy.membus.transDist::WriteResp      2042286                       # Transaction distribution (Count)
board.cache_hierarchy.membus.transDist::SoftPFReq         1248                       # Transaction distribution (Count)
board.cache_hierarchy.membus.transDist::SoftPFResp         1248                       # Transaction distribution (Count)
board.cache_hierarchy.membus.transDist::LockedRMWReadReq           18                       # Transaction distribution (Count)
board.cache_hierarchy.membus.transDist::LockedRMWReadResp           18                       # Transaction distribution (Count)
board.cache_hierarchy.membus.transDist::LockedRMWWriteReq           18                       # Transaction distribution (Count)
board.cache_hierarchy.membus.transDist::LockedRMWWriteResp           18                       # Transaction distribution (Count)
board.cache_hierarchy.membus.pktCount_board.processor.cores.core.fetch1.icache_port::board.memory.mem_ctrl.port     14155617                       # Packet count per connected requestor and responder (Count)
board.cache_hierarchy.membus.pktCount_board.processor.cores.core.fetch1.icache_port::total     14155617                       # Packet count per connected requestor and responder (Count)
board.cache_hierarchy.membus.pktCount_board.processor.cores.core.execute.dcache_port::board.memory.mem_ctrl.port     30212642                       # Packet count per connected requestor and responder (Count)
board.cache_hierarchy.membus.pktCount_board.processor.cores.core.execute.dcache_port::total     30212642                       # Packet count per connected requestor and responder (Count)
board.cache_hierarchy.membus.pktCount::total     44368259                       # Packet count per connected requestor and responder (Count)
board.cache_hierarchy.membus.pktSize_board.processor.cores.core.fetch1.icache_port::board.memory.mem_ctrl.port    452979712                       # Cumulative packet size per connected requestor and responder (Byte)
board.cache_hierarchy.membus.pktSize_board.processor.cores.core.fetch1.icache_port::total    452979712                       # Cumulative packet size per connected requestor and responder (Byte)
board.cache_hierarchy.membus.pktSize_board.processor.cores.core.execute.dcache_port::board.memory.mem_ctrl.port     60514898                       # Cumulative packet size per connected requestor and responder (Byte)
board.cache_hierarchy.membus.pktSize_board.processor.cores.core.execute.dcache_port::total     60514898                       # Cumulative packet size per connected requestor and responder (Byte)
board.cache_hierarchy.membus.pktSize::total    513494610                       # Cumulative packet size per connected requestor and responder (Byte)
board.cache_hierarchy.membus.snoops                 0                       # Total snoops (Count)
board.cache_hierarchy.membus.snoopTraffic            0                       # Total snoop traffic (Byte)
board.cache_hierarchy.membus.snoopFanout::samples     22184130                       # Request fanout histogram (Count)
board.cache_hierarchy.membus.snoopFanout::mean            0                       # Request fanout histogram (Count)
board.cache_hierarchy.membus.snoopFanout::stdev            0                       # Request fanout histogram (Count)
board.cache_hierarchy.membus.snoopFanout::underflows            0      0.00%      0.00% # Request fanout histogram (Count)
board.cache_hierarchy.membus.snoopFanout::0     22184130    100.00%    100.00% # Request fanout histogram (Count)
board.cache_hierarchy.membus.snoopFanout::1            0      0.00%    100.00% # Request fanout histogram (Count)
board.cache_hierarchy.membus.snoopFanout::overflows            0      0.00%    100.00% # Request fanout histogram (Count)
board.cache_hierarchy.membus.snoopFanout::min_value            0                       # Request fanout histogram (Count)
board.cache_hierarchy.membus.snoopFanout::max_value            0                       # Request fanout histogram (Count)
board.cache_hierarchy.membus.snoopFanout::total     22184130                       # Request fanout histogram (Count)
board.cache_hierarchy.membus.badaddr_responder.power_state.pwrStateResidencyTicks::UNDEFINED 846209475000                       # Cumulative time (in ticks) in various power states (Tick)
board.cache_hierarchy.membus.power_state.pwrStateResidencyTicks::UNDEFINED 846209475000                       # Cumulative time (in ticks) in various power states (Tick)
board.cache_hierarchy.membus.reqLayer2.occupancy  12113217000                       # Layer occupancy (ticks) (Tick)
board.cache_hierarchy.membus.reqLayer2.utilization          0.0                       # Layer utilization (Ratio)
board.cache_hierarchy.membus.respLayer0.occupancy   8088424250                       # Layer occupancy (ticks) (Tick)
board.cache_hierarchy.membus.respLayer0.utilization          0.0                       # Layer utilization (Ratio)
board.cache_hierarchy.membus.respLayer1.occupancy  15891929250                       # Layer occupancy (ticks) (Tick)
board.cache_hierarchy.membus.respLayer1.utilization          0.0                       # Layer utilization (Ratio)
board.cache_hierarchy.membus.snoop_filter.totRequests            0                       # Total number of requests made to the snoop filter. (Count)
board.cache_hierarchy.membus.snoop_filter.hitSingleRequests            0                       # Number of requests hitting in the snoop filter with a single holder of the requested data. (Count)
board.cache_hierarchy.membus.snoop_filter.hitMultiRequests            0                       # Number of requests hitting in the snoop filter with multiple (>1) holders of the requested data. (Count)
board.cache_hierarchy.membus.snoop_filter.totSnoops            0                       # Total number of snoops made to the snoop filter. (Count)
board.cache_hierarchy.membus.snoop_filter.hitSingleSnoops            0                       # Number of snoops hitting in the snoop filter with a single holder of the requested data. (Count)
board.cache_hierarchy.membus.snoop_filter.hitMultiSnoops            0                       # Number of snoops hitting in the snoop filter with multiple (>1) holders of the requested data. (Count)
board.clk_domain.clock                            500                       # Clock period in ticks (Tick)
board.clk_domain.voltage_domain.voltage             1                       # Voltage in Volts (Volt)
board.memory.mem_ctrl.avgPriority_processor.cores.core.inst::samples   7077809.00                       # Average QoS priority value for accepted requests (Count)
board.memory.mem_ctrl.avgPriority_processor.cores.core.data::samples  10085008.00                       # Average QoS priority value for accepted requests (Count)
board.memory.mem_ctrl.priorityMinLatency 0.000000018750                       # per QoS priority minimum request to response latency (Second)
board.memory.mem_ctrl.priorityMaxLatency 0.212039404000                       # per QoS priority maximum request to response latency (Second)
board.memory.mem_ctrl.numReadWriteTurnArounds          136                       # Number of turnarounds from READ to WRITE (Count)
board.memory.mem_ctrl.numWriteReadTurnArounds          136                       # Number of turnarounds from WRITE to READ (Count)
board.memory.mem_ctrl.numStayReadState       32707833                       # Number of times bus staying in READ state (Count)
board.memory.mem_ctrl.numStayWriteState          2040                       # Number of times bus staying in WRITE state (Count)
board.memory.mem_ctrl.readReqs               20141826                       # Number of read requests accepted (Count)
board.memory.mem_ctrl.writeReqs               2042304                       # Number of write requests accepted (Count)
board.memory.mem_ctrl.readBursts             20141826                       # Number of controller read bursts, including those serviced by the write queue (Count)
board.memory.mem_ctrl.writeBursts             2042304                       # Number of controller write bursts, including those merged in the write queue (Count)
board.memory.mem_ctrl.servicedByWrQ           2981211                       # Number of controller read bursts serviced by the write queue (Count)
board.memory.mem_ctrl.mergedWrBursts          2040102                       # Number of controller write bursts merged with an existing one (Count)
board.memory.mem_ctrl.neitherReadNorWriteReqs            0                       # Number of requests that are neither read nor write (Count)
board.memory.mem_ctrl.avgRdQLen                  1.88                       # Average read queue length when enqueuing ((Count/Tick))
board.memory.mem_ctrl.avgWrQLen                 25.23                       # Average write queue length when enqueuing ((Count/Tick))
board.memory.mem_ctrl.numRdRetry                    0                       # Number of times read queue was full causing retry (Count)
board.memory.mem_ctrl.numWrRetry                    0                       # Number of times write queue was full causing retry (Count)
board.memory.mem_ctrl.readPktSize::0             1477                       # Read request sizes (log2) (Count)
board.memory.mem_ctrl.readPktSize::1               22                       # Read request sizes (log2) (Count)
board.memory.mem_ctrl.readPktSize::2         13050792                       # Read request sizes (log2) (Count)
board.memory.mem_ctrl.readPktSize::3            11726                       # Read request sizes (log2) (Count)
board.memory.mem_ctrl.readPktSize::4                0                       # Read request sizes (log2) (Count)
board.memory.mem_ctrl.readPktSize::5                0                       # Read request sizes (log2) (Count)
board.memory.mem_ctrl.readPktSize::6          7077809                       # Read request sizes (log2) (Count)
board.memory.mem_ctrl.writePktSize::0              39                       # Write request sizes (log2) (Count)
board.memory.mem_ctrl.writePktSize::1               2                       # Write request sizes (log2) (Count)
board.memory.mem_ctrl.writePktSize::2         2030435                       # Write request sizes (log2) (Count)
board.memory.mem_ctrl.writePktSize::3           11828                       # Write request sizes (log2) (Count)
board.memory.mem_ctrl.writePktSize::4               0                       # Write request sizes (log2) (Count)
board.memory.mem_ctrl.writePktSize::5               0                       # Write request sizes (log2) (Count)
board.memory.mem_ctrl.writePktSize::6               0                       # Write request sizes (log2) (Count)
board.memory.mem_ctrl.rdQLenPdf::0            6150726                       # What read queue length does an incoming req see (Count)
board.memory.mem_ctrl.rdQLenPdf::1           11007349                       # What read queue length does an incoming req see (Count)
board.memory.mem_ctrl.rdQLenPdf::2               2540                       # What read queue length does an incoming req see (Count)
board.memory.mem_ctrl.rdQLenPdf::3                  0                       # What read queue length does an incoming req see (Count)
board.memory.mem_ctrl.rdQLenPdf::4                  0                       # What read queue length does an incoming req see (Count)
board.memory.mem_ctrl.rdQLenPdf::5                  0                       # What read queue length does an incoming req see (Count)
board.memory.mem_ctrl.rdQLenPdf::6                  0                       # What read queue length does an incoming req see (Count)
board.memory.mem_ctrl.rdQLenPdf::7                  0                       # What read queue length does an incoming req see (Count)
board.memory.mem_ctrl.rdQLenPdf::8                  0                       # What read queue length does an incoming req see (Count)
board.memory.mem_ctrl.rdQLenPdf::9                  0                       # What read queue length does an incoming req see (Count)
board.memory.mem_ctrl.rdQLenPdf::10                 0                       # What read queue length does an incoming req see (Count)
board.memory.mem_ctrl.rdQLenPdf::11                 0                       # What read queue length does an incoming req see (Count)
board.memory.mem_ctrl.rdQLenPdf::12                 0                       # What read queue length does an incoming req see (Count)
board.memory.mem_ctrl.rdQLenPdf::13                 0                       # What read queue length does an incoming req see (Count)
board.memory.mem_ctrl.rdQLenPdf::14                 0                       # What read queue length does an incoming req see (Count)
board.memory.mem_ctrl.rdQLenPdf::15                 0                       # What read queue length does an incoming req see (Count)
board.memory.mem_ctrl.rdQLenPdf::16                 0                       # What read queue length does an incoming req see (Count)
board.memory.mem_ctrl.rdQLenPdf::17                 0                       # What read queue length does an incoming req see (Count)
board.memory.mem_ctrl.rdQLenPdf::18                 0                       # What read queue length does an incoming req see (Count)
board.memory.mem_ctrl.rdQLenPdf::19                 0                       # What read queue length does an incoming req see (Count)
board.memory.mem_ctrl.rdQLenPdf::20                 0                       # What read queue length does an incoming req see (Count)
board.memory.mem_ctrl.rdQLenPdf::21                 0                       # What read queue length does an incoming req see (Count)
board.memory.mem_ctrl.rdQLenPdf::22                 0                       # What read queue length does an incoming req see (Count)
board.memory.mem_ctrl.rdQLenPdf::23                 0                       # What read queue length does an incoming req see (Count)
board.memory.mem_ctrl.rdQLenPdf::24                 0                       # What read queue length does an incoming req see (Count)
board.memory.mem_ctrl.rdQLenPdf::25                 0                       # What read queue length does an incoming req see (Count)
board.memory.mem_ctrl.rdQLenPdf::26                 0                       # What read queue length does an incoming req see (Count)
board.memory.mem_ctrl.rdQLenPdf::27                 0                       # What read queue length does an incoming req see (Count)
board.memory.mem_ctrl.rdQLenPdf::28                 0                       # What read queue length does an incoming req see (Count)
board.memory.mem_ctrl.rdQLenPdf::29                 0                       # What read queue length does an incoming req see (Count)
board.memory.mem_ctrl.rdQLenPdf::30                 0                       # What read queue length does an incoming req see (Count)
board.memory.mem_ctrl.rdQLenPdf::31                 0                       # What read queue length does an incoming req see (Count)
board.memory.mem_ctrl.wrQLenPdf::0                  1                       # What write queue length does an incoming req see (Count)
board.memory.mem_ctrl.wrQLenPdf::1                  1                       # What write queue length does an incoming req see (Count)
board.memory.mem_ctrl.wrQLenPdf::2                  1                       # What write queue length does an incoming req see (Count)
board.memory.mem_ctrl.wrQLenPdf::3                  1                       # What write queue length does an incoming req see (Count)
board.memory.mem_ctrl.wrQLenPdf::4                  1                       # What write queue length does an incoming req see (Count)
board.memory.mem_ctrl.wrQLenPdf::5                  1                       # What write queue length does an incoming req see (Count)
board.memory.mem_ctrl.wrQLenPdf::6                  1                       # What write queue length does an incoming req see (Count)
board.memory.mem_ctrl.wrQLenPdf::7                  1                       # What write queue length does an incoming req see (Count)
board.memory.mem_ctrl.wrQLenPdf::8                  1                       # What write queue length does an incoming req see (Count)
board.memory.mem_ctrl.wrQLenPdf::9                  1                       # What write queue length does an incoming req see (Count)
board.memory.mem_ctrl.wrQLenPdf::10                 1                       # What write queue length does an incoming req see (Count)
board.memory.mem_ctrl.wrQLenPdf::11                 1                       # What write queue length does an incoming req see (Count)
board.memory.mem_ctrl.wrQLenPdf::12                 1                       # What write queue length does an incoming req see (Count)
board.memory.mem_ctrl.wrQLenPdf::13                 1                       # What write queue length does an incoming req see (Count)
board.memory.mem_ctrl.wrQLenPdf::14                 1                       # What write queue length does an incoming req see (Count)
board.memory.mem_ctrl.wrQLenPdf::15                 1                       # What write queue length does an incoming req see (Count)
board.memory.mem_ctrl.wrQLenPdf::16                 1                       # What write queue length does an incoming req see (Count)
board.memory.mem_ctrl.wrQLenPdf::17               135                       # What write queue length does an incoming req see (Count)
board.memory.mem_ctrl.wrQLenPdf::18               137                       # What write queue length does an incoming req see (Count)
board.memory.mem_ctrl.wrQLenPdf::19               137                       # What write queue length does an incoming req see (Count)
board.memory.mem_ctrl.wrQLenPdf::20               137                       # What write queue length does an incoming req see (Count)
board.memory.mem_ctrl.wrQLenPdf::21               137                       # What write queue length does an incoming req see (Count)
board.memory.mem_ctrl.wrQLenPdf::22               137                       # What write queue length does an incoming req see (Count)
board.memory.mem_ctrl.wrQLenPdf::23               137                       # What write queue length does an incoming req see (Count)
board.memory.mem_ctrl.wrQLenPdf::24               137                       # What write queue length does an incoming req see (Count)
board.memory.mem_ctrl.wrQLenPdf::25               137                       # What write queue length does an incoming req see (Count)
board.memory.mem_ctrl.wrQLenPdf::26               136                       # What write queue length does an incoming req see (Count)
board.memory.mem_ctrl.wrQLenPdf::27               138                       # What write queue length does an incoming req see (Count)
board.memory.mem_ctrl.wrQLenPdf::28               136                       # What write queue length does an incoming req see (Count)
board.memory.mem_ctrl.wrQLenPdf::29               136                       # What write queue length does an incoming req see (Count)
board.memory.mem_ctrl.wrQLenPdf::30               136                       # What write queue length does an incoming req see (Count)
board.memory.mem_ctrl.wrQLenPdf::31               136                       # What write queue length does an incoming req see (Count)
board.memory.mem_ctrl.wrQLenPdf::32               136                       # What write queue length does an incoming req see (Count)
board.memory.mem_ctrl.wrQLenPdf::33                 0                       # What write queue length does an incoming req see (Count)
board.memory.mem_ctrl.wrQLenPdf::34                 0                       # What write queue length does an incoming req see (Count)
board.memory.mem_ctrl.wrQLenPdf::35                 0                       # What write queue length does an incoming req see (Count)
board.memory.mem_ctrl.wrQLenPdf::36                 0                       # What write queue length does an incoming req see (Count)
board.memory.mem_ctrl.wrQLenPdf::37                 0                       # What write queue length does an incoming req see (Count)
board.memory.mem_ctrl.wrQLenPdf::38                 0                       # What write queue length does an incoming req see (Count)
board.memory.mem_ctrl.wrQLenPdf::39                 0                       # What write queue length does an incoming req see (Count)
board.memory.mem_ctrl.wrQLenPdf::40                 0                       # What write queue length does an incoming req see (Count)
board.memory.mem_ctrl.wrQLenPdf::41                 0                       # What write queue length does an incoming req see (Count)
board.memory.mem_ctrl.wrQLenPdf::42                 0                       # What write queue length does an incoming req see (Count)
board.memory.mem_ctrl.wrQLenPdf::43                 0                       # What write queue length does an incoming req see (Count)
board.memory.mem_ctrl.wrQLenPdf::44                 0                       # What write queue length does an incoming req see (Count)
board.memory.mem_ctrl.wrQLenPdf::45                 0                       # What write queue length does an incoming req see (Count)
board.memory.mem_ctrl.wrQLenPdf::46                 0                       # What write queue length does an incoming req see (Count)
board.memory.mem_ctrl.wrQLenPdf::47                 0                       # What write queue length does an incoming req see (Count)
board.memory.mem_ctrl.wrQLenPdf::48                 0                       # What write queue length does an incoming req see (Count)
board.memory.mem_ctrl.wrQLenPdf::49                 0                       # What write queue length does an incoming req see (Count)
board.memory.mem_ctrl.wrQLenPdf::50                 0                       # What write queue length does an incoming req see (Count)
board.memory.mem_ctrl.wrQLenPdf::51                 0                       # What write queue length does an incoming req see (Count)
board.memory.mem_ctrl.wrQLenPdf::52                 0                       # What write queue length does an incoming req see (Count)
board.memory.mem_ctrl.wrQLenPdf::53                 0                       # What write queue length does an incoming req see (Count)
board.memory.mem_ctrl.wrQLenPdf::54                 0                       # What write queue length does an incoming req see (Count)
board.memory.mem_ctrl.wrQLenPdf::55                 0                       # What write queue length does an incoming req see (Count)
board.memory.mem_ctrl.wrQLenPdf::56                 0                       # What write queue length does an incoming req see (Count)
board.memory.mem_ctrl.wrQLenPdf::57                 0                       # What write queue length does an incoming req see (Count)
board.memory.mem_ctrl.wrQLenPdf::58                 0                       # What write queue length does an incoming req see (Count)
board.memory.mem_ctrl.wrQLenPdf::59                 0                       # What write queue length does an incoming req see (Count)
board.memory.mem_ctrl.wrQLenPdf::60                 0                       # What write queue length does an incoming req see (Count)
board.memory.mem_ctrl.wrQLenPdf::61                 0                       # What write queue length does an incoming req see (Count)
board.memory.mem_ctrl.wrQLenPdf::62                 0                       # What write queue length does an incoming req see (Count)
board.memory.mem_ctrl.wrQLenPdf::63                 0                       # What write queue length does an incoming req see (Count)
board.memory.mem_ctrl.rdPerTurnAround::samples          136                       # Reads before turning the bus around for writes (Count)
board.memory.mem_ctrl.rdPerTurnAround::mean 126180.044118                       # Reads before turning the bus around for writes (Count)
board.memory.mem_ctrl.rdPerTurnAround::gmean  2028.413099                       # Reads before turning the bus around for writes (Count)
board.memory.mem_ctrl.rdPerTurnAround::stdev 192210.529515                       # Reads before turning the bus around for writes (Count)
board.memory.mem_ctrl.rdPerTurnAround::0-16383           94     69.12%     69.12% # Reads before turning the bus around for writes (Count)
board.memory.mem_ctrl.rdPerTurnAround::81920-98303            1      0.74%     69.85% # Reads before turning the bus around for writes (Count)
board.memory.mem_ctrl.rdPerTurnAround::212992-229375            1      0.74%     70.59% # Reads before turning the bus around for writes (Count)
board.memory.mem_ctrl.rdPerTurnAround::376832-393215            2      1.47%     72.06% # Reads before turning the bus around for writes (Count)
board.memory.mem_ctrl.rdPerTurnAround::393216-409599           22     16.18%     88.24% # Reads before turning the bus around for writes (Count)
board.memory.mem_ctrl.rdPerTurnAround::425984-442367           15     11.03%     99.26% # Reads before turning the bus around for writes (Count)
board.memory.mem_ctrl.rdPerTurnAround::507904-524287            1      0.74%    100.00% # Reads before turning the bus around for writes (Count)
board.memory.mem_ctrl.rdPerTurnAround::total          136                       # Reads before turning the bus around for writes (Count)
board.memory.mem_ctrl.wrPerTurnAround::samples          136                       # Writes before turning the bus around for reads (Count)
board.memory.mem_ctrl.wrPerTurnAround::mean           16                       # Writes before turning the bus around for reads (Count)
board.memory.mem_ctrl.wrPerTurnAround::gmean    16.000000                       # Writes before turning the bus around for reads (Count)
board.memory.mem_ctrl.wrPerTurnAround::16          136    100.00%    100.00% # Writes before turning the bus around for reads (Count)
board.memory.mem_ctrl.wrPerTurnAround::total          136                       # Writes before turning the bus around for reads (Count)
board.memory.mem_ctrl.bytesReadWrQ          190797504                       # Total number of bytes read from write queue (Byte)
board.memory.mem_ctrl.bytesReadSys          505278267                       # Total read bytes from the system interface side (Byte)
board.memory.mem_ctrl.bytesWrittenSys         8216407                       # Total written bytes from the system interface side (Byte)
board.memory.mem_ctrl.avgRdBWSys         597107787.05237257                       # Average system read bandwidth in Byte/s ((Byte/Second))
board.memory.mem_ctrl.avgWrBWSys         9709660.83782033                       # Average system write bandwidth in Byte/s ((Byte/Second))
board.memory.mem_ctrl.totGap             846209472000                       # Total gap between requests (Tick)
board.memory.mem_ctrl.avgGap                 38144.81                       # Average gap between requests ((Tick/Count))
board.memory.mem_ctrl.requestorReadBytes::processor.cores.core.inst    452979776                       # Per-requestor bytes read from memory (Byte)
board.memory.mem_ctrl.requestorReadBytes::processor.cores.core.data     40372720                       # Per-requestor bytes read from memory (Byte)
board.memory.mem_ctrl.requestorWriteBytes::processor.cores.core.data        14634                       # Per-requestor bytes write to memory (Byte)
board.memory.mem_ctrl.requestorReadRate::processor.cores.core.inst 535304542.648851811886                       # Per-requestor bytes read from memory rate ((Byte/Second))
board.memory.mem_ctrl.requestorReadRate::processor.cores.core.data 47710077.933126427233                       # Per-requestor bytes read from memory rate ((Byte/Second))
board.memory.mem_ctrl.requestorWriteRate::processor.cores.core.data 17293.590337073452                       # Per-requestor bytes write to memory rate ((Byte/Second))
board.memory.mem_ctrl.requestorReadAccesses::processor.cores.core.inst      7077809                       # Per-requestor read serviced memory accesses (Count)
board.memory.mem_ctrl.requestorReadAccesses::processor.cores.core.data     13064017                       # Per-requestor read serviced memory accesses (Count)
board.memory.mem_ctrl.requestorWriteAccesses::processor.cores.core.data      2042304                       # Per-requestor write serviced memory accesses (Count)
board.memory.mem_ctrl.requestorReadTotalLat::processor.cores.core.inst 424102850500                       # Per-requestor read total memory access latency (Tick)
board.memory.mem_ctrl.requestorReadTotalLat::processor.cores.core.data 546711864000                       # Per-requestor read total memory access latency (Tick)
board.memory.mem_ctrl.requestorWriteTotalLat::processor.cores.core.data 20866493092750                       # Per-requestor write total memory access latency (Tick)
board.memory.mem_ctrl.requestorReadAvgLat::processor.cores.core.inst     59920.08                       # Per-requestor read average memory access latency ((Tick/Count))
board.memory.mem_ctrl.requestorReadAvgLat::processor.cores.core.data     41848.68                       # Per-requestor read average memory access latency ((Tick/Count))
board.memory.mem_ctrl.requestorWriteAvgLat::processor.cores.core.data  10217133.73                       # Per-requestor write average memory access latency ((Tick/Count))
board.memory.mem_ctrl.dram.bytesRead::processor.cores.core.inst    452979712                       # Number of bytes read from this memory (Byte)
board.memory.mem_ctrl.dram.bytesRead::processor.cores.core.data     52298491                       # Number of bytes read from this memory (Byte)
board.memory.mem_ctrl.dram.bytesRead::total    505278203                       # Number of bytes read from this memory (Byte)
board.memory.mem_ctrl.dram.bytesInstRead::processor.cores.core.inst    452979712                       # Number of instructions bytes read from this memory (Byte)
board.memory.mem_ctrl.dram.bytesInstRead::total    452979712                       # Number of instructions bytes read from this memory (Byte)
board.memory.mem_ctrl.dram.bytesWritten::processor.cores.core.data      8216407                       # Number of bytes written to this memory (Byte)
board.memory.mem_ctrl.dram.bytesWritten::total      8216407                       # Number of bytes written to this memory (Byte)
board.memory.mem_ctrl.dram.numReads::processor.cores.core.inst      7077808                       # Number of read requests responded to by this memory (Count)
board.memory.mem_ctrl.dram.numReads::processor.cores.core.data     13064017                       # Number of read requests responded to by this memory (Count)
board.memory.mem_ctrl.dram.numReads::total     20141825                       # Number of read requests responded to by this memory (Count)
board.memory.mem_ctrl.dram.numWrites::processor.cores.core.data      2042304                       # Number of write requests responded to by this memory (Count)
board.memory.mem_ctrl.dram.numWrites::total      2042304                       # Number of write requests responded to by this memory (Count)
board.memory.mem_ctrl.dram.bwRead::processor.cores.core.inst    535304467                       # Total read bandwidth from this memory ((Byte/Second))
board.memory.mem_ctrl.dram.bwRead::processor.cores.core.data     61803244                       # Total read bandwidth from this memory ((Byte/Second))
board.memory.mem_ctrl.dram.bwRead::total    597107711                       # Total read bandwidth from this memory ((Byte/Second))
board.memory.mem_ctrl.dram.bwInstRead::processor.cores.core.inst    535304467                       # Instruction read bandwidth from this memory ((Byte/Second))
board.memory.mem_ctrl.dram.bwInstRead::total    535304467                       # Instruction read bandwidth from this memory ((Byte/Second))
board.memory.mem_ctrl.dram.bwWrite::processor.cores.core.data      9709661                       # Write bandwidth from this memory ((Byte/Second))
board.memory.mem_ctrl.dram.bwWrite::total      9709661                       # Write bandwidth from this memory ((Byte/Second))
board.memory.mem_ctrl.dram.bwTotal::processor.cores.core.inst    535304467                       # Total bandwidth to/from this memory ((Byte/Second))
board.memory.mem_ctrl.dram.bwTotal::processor.cores.core.data     71512905                       # Total bandwidth to/from this memory ((Byte/Second))
board.memory.mem_ctrl.dram.bwTotal::total    606817372                       # Total bandwidth to/from this memory ((Byte/Second))
board.memory.mem_ctrl.dram.readBursts        17160615                       # Number of DRAM read bursts (Count)
board.memory.mem_ctrl.dram.writeBursts           2176                       # Number of DRAM write bursts (Count)
board.memory.mem_ctrl.dram.perBankRdBursts::0     14333161                       # Per bank write bursts (Count)
board.memory.mem_ctrl.dram.perBankRdBursts::1        97788                       # Per bank write bursts (Count)
board.memory.mem_ctrl.dram.perBankRdBursts::2        97377                       # Per bank write bursts (Count)
board.memory.mem_ctrl.dram.perBankRdBursts::3       193194                       # Per bank write bursts (Count)
board.memory.mem_ctrl.dram.perBankRdBursts::4       193390                       # Per bank write bursts (Count)
board.memory.mem_ctrl.dram.perBankRdBursts::5       195695                       # Per bank write bursts (Count)
board.memory.mem_ctrl.dram.perBankRdBursts::6       198533                       # Per bank write bursts (Count)
board.memory.mem_ctrl.dram.perBankRdBursts::7       204922                       # Per bank write bursts (Count)
board.memory.mem_ctrl.dram.perBankRdBursts::8       204998                       # Per bank write bursts (Count)
board.memory.mem_ctrl.dram.perBankRdBursts::9       205338                       # Per bank write bursts (Count)
board.memory.mem_ctrl.dram.perBankRdBursts::10       205259                       # Per bank write bursts (Count)
board.memory.mem_ctrl.dram.perBankRdBursts::11       205012                       # Per bank write bursts (Count)
board.memory.mem_ctrl.dram.perBankRdBursts::12       206444                       # Per bank write bursts (Count)
board.memory.mem_ctrl.dram.perBankRdBursts::13       206028                       # Per bank write bursts (Count)
board.memory.mem_ctrl.dram.perBankRdBursts::14       206307                       # Per bank write bursts (Count)
board.memory.mem_ctrl.dram.perBankRdBursts::15       207169                       # Per bank write bursts (Count)
board.memory.mem_ctrl.dram.perBankWrBursts::0          156                       # Per bank write bursts (Count)
board.memory.mem_ctrl.dram.perBankWrBursts::1           99                       # Per bank write bursts (Count)
board.memory.mem_ctrl.dram.perBankWrBursts::2          102                       # Per bank write bursts (Count)
board.memory.mem_ctrl.dram.perBankWrBursts::3          131                       # Per bank write bursts (Count)
board.memory.mem_ctrl.dram.perBankWrBursts::4          130                       # Per bank write bursts (Count)
board.memory.mem_ctrl.dram.perBankWrBursts::5          131                       # Per bank write bursts (Count)
board.memory.mem_ctrl.dram.perBankWrBursts::6          130                       # Per bank write bursts (Count)
board.memory.mem_ctrl.dram.perBankWrBursts::7          130                       # Per bank write bursts (Count)
board.memory.mem_ctrl.dram.perBankWrBursts::8          130                       # Per bank write bursts (Count)
board.memory.mem_ctrl.dram.perBankWrBursts::9          130                       # Per bank write bursts (Count)
board.memory.mem_ctrl.dram.perBankWrBursts::10          130                       # Per bank write bursts (Count)
board.memory.mem_ctrl.dram.perBankWrBursts::11          145                       # Per bank write bursts (Count)
board.memory.mem_ctrl.dram.perBankWrBursts::12          195                       # Per bank write bursts (Count)
board.memory.mem_ctrl.dram.perBankWrBursts::13          144                       # Per bank write bursts (Count)
board.memory.mem_ctrl.dram.perBankWrBursts::14          130                       # Per bank write bursts (Count)
board.memory.mem_ctrl.dram.perBankWrBursts::15          163                       # Per bank write bursts (Count)
board.memory.mem_ctrl.dram.totQLat       649053183250                       # Total ticks spent queuing (Tick)
board.memory.mem_ctrl.dram.totBusLat      85803075000                       # Total ticks spent in databus transfers (Tick)
board.memory.mem_ctrl.dram.totMemAccLat  970814714500                       # Total ticks spent from burst creation until serviced by the DRAM (Tick)
board.memory.mem_ctrl.dram.avgQLat           37822.26                       # Average queueing delay per DRAM burst ((Tick/Count))
board.memory.mem_ctrl.dram.avgBusLat          5000.00                       # Average bus latency per DRAM burst ((Tick/Count))
board.memory.mem_ctrl.dram.avgMemAccLat      56572.26                       # Average memory access latency per DRAM burst ((Tick/Count))
board.memory.mem_ctrl.dram.readRowHits        4654550                       # Number of row buffer hits during reads (Count)
board.memory.mem_ctrl.dram.writeRowHits          1985                       # Number of row buffer hits during writes (Count)
board.memory.mem_ctrl.dram.readRowHitRate        27.12                       # Row buffer hit rate for reads (Ratio)
board.memory.mem_ctrl.dram.writeRowHitRate        91.22                       # Row buffer hit rate for writes (Ratio)
board.memory.mem_ctrl.dram.bytesPerActivate::samples     12506246                       # Bytes accessed per row activation (Byte)
board.memory.mem_ctrl.dram.bytesPerActivate::mean    87.829327                       # Bytes accessed per row activation (Byte)
board.memory.mem_ctrl.dram.bytesPerActivate::gmean    76.247144                       # Bytes accessed per row activation (Byte)
board.memory.mem_ctrl.dram.bytesPerActivate::stdev    81.479617                       # Bytes accessed per row activation (Byte)
board.memory.mem_ctrl.dram.bytesPerActivate::0-127     10060956     80.45%     80.45% # Bytes accessed per row activation (Byte)
board.memory.mem_ctrl.dram.bytesPerActivate::128-255      2118128     16.94%     97.38% # Bytes accessed per row activation (Byte)
board.memory.mem_ctrl.dram.bytesPerActivate::256-383        34814      0.28%     97.66% # Bytes accessed per row activation (Byte)
board.memory.mem_ctrl.dram.bytesPerActivate::384-511        25869      0.21%     97.87% # Bytes accessed per row activation (Byte)
board.memory.mem_ctrl.dram.bytesPerActivate::512-639       192414      1.54%     99.41% # Bytes accessed per row activation (Byte)
board.memory.mem_ctrl.dram.bytesPerActivate::640-767        70000      0.56%     99.97% # Bytes accessed per row activation (Byte)
board.memory.mem_ctrl.dram.bytesPerActivate::768-895         1022      0.01%     99.98% # Bytes accessed per row activation (Byte)
board.memory.mem_ctrl.dram.bytesPerActivate::896-1023         1009      0.01%     99.98% # Bytes accessed per row activation (Byte)
board.memory.mem_ctrl.dram.bytesPerActivate::1024-1151         2034      0.02%    100.00% # Bytes accessed per row activation (Byte)
board.memory.mem_ctrl.dram.bytesPerActivate::total     12506246                       # Bytes accessed per row activation (Byte)
board.memory.mem_ctrl.dram.bytesRead       1098279360                       # Total bytes read (Byte)
board.memory.mem_ctrl.dram.bytesWritten        139264                       # Total bytes written (Byte)
board.memory.mem_ctrl.dram.avgRdBW        1297.881190                       # Average DRAM read bandwidth in MiBytes/s ((Byte/Second))
board.memory.mem_ctrl.dram.avgWrBW           0.164574                       # Average DRAM write bandwidth in MiBytes/s ((Byte/Second))
board.memory.mem_ctrl.dram.peakBW            12800.00                       # Theoretical peak bandwidth in MiByte/s ((Byte/Second))
board.memory.mem_ctrl.dram.busUtil              10.14                       # Data bus utilization in percentage (Ratio)
board.memory.mem_ctrl.dram.busUtilRead          10.14                       # Data bus utilization in percentage for reads (Ratio)
board.memory.mem_ctrl.dram.busUtilWrite          0.00                       # Data bus utilization in percentage for writes (Ratio)
board.memory.mem_ctrl.dram.pageHitRate          27.13                       # Row buffer hit rate, read and write combined (Ratio)
board.memory.mem_ctrl.dram.power_state.pwrStateResidencyTicks::UNDEFINED 846209475000                       # Cumulative time (in ticks) in various power states (Tick)
board.memory.mem_ctrl.dram.rank0.actEnergy  87780809340                       # Energy for activate commands per rank (pJ) (Joule)
board.memory.mem_ctrl.dram.rank0.preEnergy  46656587670                       # Energy for precharge commands per rank (pJ) (Joule)
board.memory.mem_ctrl.dram.rank0.readEnergy 110770388400                       # Energy for read commands per rank (pJ) (Joule)
board.memory.mem_ctrl.dram.rank0.writeEnergy      5266980                       # Energy for write commands per rank (pJ) (Joule)
board.memory.mem_ctrl.dram.rank0.refreshEnergy 66798460560.000008                       # Energy for refresh commands per rank (pJ) (Joule)
board.memory.mem_ctrl.dram.rank0.actBackEnergy 374343889050                       # Energy for active background per rank (pJ) (Joule)
board.memory.mem_ctrl.dram.rank0.preBackEnergy   9707479200                       # Energy for precharge background per rank (pJ) (Joule)
board.memory.mem_ctrl.dram.rank0.actPowerDownEnergy            0                       # Energy for active power-down per rank (pJ) (Joule)
board.memory.mem_ctrl.dram.rank0.prePowerDownEnergy            0                       # Energy for precharge power-down per rank (pJ) (Joule)
board.memory.mem_ctrl.dram.rank0.selfRefreshEnergy            0                       # Energy for self refresh per rank (pJ) (Joule)
board.memory.mem_ctrl.dram.rank0.totalEnergy 696062881200                       # Total energy per rank (pJ) (Joule)
board.memory.mem_ctrl.dram.rank0.averagePower   822.565691                       # Core power per rank (mW) (Watt)
board.memory.mem_ctrl.dram.rank0.totalIdleTime            0                       # Total Idle time Per DRAM Rank (Tick)
board.memory.mem_ctrl.dram.rank0.pwrStateTime::IDLE    124177500                       # Time in different power states (Tick)
board.memory.mem_ctrl.dram.rank0.pwrStateTime::REF  28256540000                       # Time in different power states (Tick)
board.memory.mem_ctrl.dram.rank0.pwrStateTime::SREF            0                       # Time in different power states (Tick)
board.memory.mem_ctrl.dram.rank0.pwrStateTime::PRE_PDN            0                       # Time in different power states (Tick)
board.memory.mem_ctrl.dram.rank0.pwrStateTime::ACT 817828757500                       # Time in different power states (Tick)
board.memory.mem_ctrl.dram.rank0.pwrStateTime::ACT_PDN            0                       # Time in different power states (Tick)
board.memory.mem_ctrl.dram.rank1.actEnergy   1513858500                       # Energy for activate commands per rank (pJ) (Joule)
board.memory.mem_ctrl.dram.rank1.preEnergy    804615900                       # Energy for precharge commands per rank (pJ) (Joule)
board.memory.mem_ctrl.dram.rank1.readEnergy  11756402700                       # Energy for read commands per rank (pJ) (Joule)
board.memory.mem_ctrl.dram.rank1.writeEnergy      6091740                       # Energy for write commands per rank (pJ) (Joule)
board.memory.mem_ctrl.dram.rank1.refreshEnergy 66798460560.000008                       # Energy for refresh commands per rank (pJ) (Joule)
board.memory.mem_ctrl.dram.rank1.actBackEnergy 363951254610                       # Energy for active background per rank (pJ) (Joule)
board.memory.mem_ctrl.dram.rank1.preBackEnergy  18459171360                       # Energy for precharge background per rank (pJ) (Joule)
board.memory.mem_ctrl.dram.rank1.actPowerDownEnergy            0                       # Energy for active power-down per rank (pJ) (Joule)
board.memory.mem_ctrl.dram.rank1.prePowerDownEnergy            0                       # Energy for precharge power-down per rank (pJ) (Joule)
board.memory.mem_ctrl.dram.rank1.selfRefreshEnergy            0                       # Energy for self refresh per rank (pJ) (Joule)
board.memory.mem_ctrl.dram.rank1.totalEnergy 463289855370                       # Total energy per rank (pJ) (Joule)
board.memory.mem_ctrl.dram.rank1.averagePower   547.488381                       # Core power per rank (mW) (Watt)
board.memory.mem_ctrl.dram.rank1.totalIdleTime            0                       # Total Idle time Per DRAM Rank (Tick)
board.memory.mem_ctrl.dram.rank1.pwrStateTime::IDLE  45056387750                       # Time in different power states (Tick)
board.memory.mem_ctrl.dram.rank1.pwrStateTime::REF  28256540000                       # Time in different power states (Tick)
board.memory.mem_ctrl.dram.rank1.pwrStateTime::SREF            0                       # Time in different power states (Tick)
board.memory.mem_ctrl.dram.rank1.pwrStateTime::PRE_PDN            0                       # Time in different power states (Tick)
board.memory.mem_ctrl.dram.rank1.pwrStateTime::ACT 772896547250                       # Time in different power states (Tick)
board.memory.mem_ctrl.dram.rank1.pwrStateTime::ACT_PDN            0                       # Time in different power states (Tick)
board.memory.mem_ctrl.power_state.pwrStateResidencyTicks::UNDEFINED 846209475000                       # Cumulative time (in ticks) in various power states (Tick)
board.processor.cores.core.numCycles       1692418950                       # Number of cpu cycles simulated (Cycle)
board.processor.cores.core.cpi              31.803151                       # CPI: cycles per instruction (core level) ((Cycle/Count))
board.processor.cores.core.ipc               0.031443                       # IPC: instructions per cycle (core level) ((Count/Cycle))
board.processor.cores.core.numWorkItemsStarted            0                       # Number of work items this cpu started (Count)
board.processor.cores.core.numWorkItemsCompleted            0                       # Number of work items this cpu completed (Count)
board.processor.cores.core.branchPred.lookups            0                       # Number of BP lookups (Count)
board.processor.cores.core.branchPred.condPredicted            0                       # Number of conditional branches predicted (Count)
board.processor.cores.core.branchPred.condIncorrect            0                       # Number of conditional branches incorrect (Count)
board.processor.cores.core.branchPred.BTBLookups            0                       # Number of BTB lookups (Count)
board.processor.cores.core.branchPred.BTBUpdates            0                       # Number of BTB updates (Count)
board.processor.cores.core.branchPred.BTBHits            0                       # Number of BTB hits (Count)
board.processor.cores.core.branchPred.BTBHitRatio          nan                       # BTB Hit Ratio (Ratio)
board.processor.cores.core.branchPred.RASUsed            0                       # Number of times the RAS was used to get a target. (Count)
board.processor.cores.core.branchPred.RASIncorrect            0                       # Number of incorrect RAS predictions. (Count)
board.processor.cores.core.branchPred.indirectLookups            0                       # Number of indirect predictor lookups. (Count)
board.processor.cores.core.branchPred.indirectHits            0                       # Number of indirect target hits. (Count)
board.processor.cores.core.branchPred.indirectMisses            0                       # Number of indirect misses. (Count)
board.processor.cores.core.branchPred.indirectMispredicted            0                       # Number of mispredicted indirect branches. (Count)
board.processor.cores.core.commitStats0.numInsts     53215448                       # Number of instructions committed (thread level) (Count)
board.processor.cores.core.commitStats0.numOps     62388879                       # Number of ops (including micro ops) committed (thread level) (Count)
board.processor.cores.core.commitStats0.numInstsNotNOP            0                       # Number of instructions committed excluding NOPs or prefetches (Count)
board.processor.cores.core.commitStats0.numOpsNotNOP            0                       # Number of Ops (including micro ops) Simulated (Count)
board.processor.cores.core.commitStats0.cpi    31.803151                       # CPI: cycles per instruction (thread level) ((Cycle/Count))
board.processor.cores.core.commitStats0.ipc     0.031443                       # IPC: instructions per cycle (thread level) ((Count/Cycle))
board.processor.cores.core.commitStats0.numMemRefs            0                       # Number of memory references committed (Count)
board.processor.cores.core.commitStats0.numFpInsts            0                       # Number of float instructions (Count)
board.processor.cores.core.commitStats0.numIntInsts            0                       # Number of integer instructions (Count)
board.processor.cores.core.commitStats0.numLoadInsts            0                       # Number of load instructions (Count)
board.processor.cores.core.commitStats0.numStoreInsts            0                       # Number of store instructions (Count)
board.processor.cores.core.commitStats0.numVecInsts            0                       # Number of vector instructions (Count)
board.processor.cores.core.commitStats0.committedInstType::No_OpClass          238      0.00%      0.00% # Class of committed instruction. (Count)
board.processor.cores.core.commitStats0.committedInstType::IntAlu     46281972     74.18%     74.18% # Class of committed instruction. (Count)
board.processor.cores.core.commitStats0.committedInstType::IntMult      1000004      1.60%     75.79% # Class of committed instruction. (Count)
board.processor.cores.core.commitStats0.committedInstType::IntDiv           28      0.00%     75.79% # Class of committed instruction. (Count)
board.processor.cores.core.commitStats0.committedInstType::FloatAdd          183      0.00%     75.79% # Class of committed instruction. (Count)
board.processor.cores.core.commitStats0.committedInstType::FloatCmp            0      0.00%     75.79% # Class of committed instruction. (Count)
board.processor.cores.core.commitStats0.committedInstType::FloatCvt            0      0.00%     75.79% # Class of committed instruction. (Count)
board.processor.cores.core.commitStats0.committedInstType::FloatMult            0      0.00%     75.79% # Class of committed instruction. (Count)
board.processor.cores.core.commitStats0.committedInstType::FloatMultAcc            0      0.00%     75.79% # Class of committed instruction. (Count)
board.processor.cores.core.commitStats0.committedInstType::FloatDiv            0      0.00%     75.79% # Class of committed instruction. (Count)
board.processor.cores.core.commitStats0.committedInstType::FloatMisc            0      0.00%     75.79% # Class of committed instruction. (Count)
board.processor.cores.core.commitStats0.committedInstType::FloatSqrt            0      0.00%     75.79% # Class of committed instruction. (Count)
board.processor.cores.core.commitStats0.committedInstType::SimdAdd            8      0.00%     75.79% # Class of committed instruction. (Count)
board.processor.cores.core.commitStats0.committedInstType::SimdAddAcc            0      0.00%     75.79% # Class of committed instruction. (Count)
board.processor.cores.core.commitStats0.committedInstType::SimdAlu          108      0.00%     75.79% # Class of committed instruction. (Count)
board.processor.cores.core.commitStats0.committedInstType::SimdCmp            0      0.00%     75.79% # Class of committed instruction. (Count)
board.processor.cores.core.commitStats0.committedInstType::SimdCvt           70      0.00%     75.79% # Class of committed instruction. (Count)
board.processor.cores.core.commitStats0.committedInstType::SimdMisc          257      0.00%     75.79% # Class of committed instruction. (Count)
board.processor.cores.core.commitStats0.committedInstType::SimdMult            0      0.00%     75.79% # Class of committed instruction. (Count)
board.processor.cores.core.commitStats0.committedInstType::SimdMultAcc            0      0.00%     75.79% # Class of committed instruction. (Count)
board.processor.cores.core.commitStats0.committedInstType::SimdMatMultAcc            0      0.00%     75.79% # Class of committed instruction. (Count)
board.processor.cores.core.commitStats0.committedInstType::SimdShift            0      0.00%     75.79% # Class of committed instruction. (Count)
board.processor.cores.core.commitStats0.committedInstType::SimdShiftAcc            0      0.00%     75.79% # Class of committed instruction. (Count)
board.processor.cores.core.commitStats0.committedInstType::SimdDiv            0      0.00%     75.79% # Class of committed instruction. (Count)
board.processor.cores.core.commitStats0.committedInstType::SimdSqrt            0      0.00%     75.79% # Class of committed instruction. (Count)
board.processor.cores.core.commitStats0.committedInstType::SimdFloatAdd            0      0.00%     75.79% # Class of committed instruction. (Count)
board.processor.cores.core.commitStats0.committedInstType::SimdFloatAlu            0      0.00%     75.79% # Class of committed instruction. (Count)
board.processor.cores.core.commitStats0.committedInstType::SimdFloatCmp            0      0.00%     75.79% # Class of committed instruction. (Count)
board.processor.cores.core.commitStats0.committedInstType::SimdFloatCvt            0      0.00%     75.79% # Class of committed instruction. (Count)
board.processor.cores.core.commitStats0.committedInstType::SimdFloatDiv            0      0.00%     75.79% # Class of committed instruction. (Count)
board.processor.cores.core.commitStats0.committedInstType::SimdFloatMisc            0      0.00%     75.79% # Class of committed instruction. (Count)
board.processor.cores.core.commitStats0.committedInstType::SimdFloatMult            0      0.00%     75.79% # Class of committed instruction. (Count)
board.processor.cores.core.commitStats0.committedInstType::SimdFloatMultAcc            0      0.00%     75.79% # Class of committed instruction. (Count)
board.processor.cores.core.commitStats0.committedInstType::SimdFloatMatMultAcc            0      0.00%     75.79% # Class of committed instruction. (Count)
board.processor.cores.core.commitStats0.committedInstType::SimdFloatSqrt            0      0.00%     75.79% # Class of committed instruction. (Count)
board.processor.cores.core.commitStats0.committedInstType::SimdReduceAdd            0      0.00%     75.79% # Class of committed instruction. (Count)
board.processor.cores.core.commitStats0.committedInstType::SimdReduceAlu            0      0.00%     75.79% # Class of committed instruction. (Count)
board.processor.cores.core.commitStats0.committedInstType::SimdReduceCmp            0      0.00%     75.79% # Class of committed instruction. (Count)
board.processor.cores.core.commitStats0.committedInstType::SimdFloatReduceAdd            0      0.00%     75.79% # Class of committed instruction. (Count)
board.processor.cores.core.commitStats0.committedInstType::SimdFloatReduceCmp            0      0.00%     75.79% # Class of committed instruction. (Count)
board.processor.cores.core.commitStats0.committedInstType::SimdAes            0      0.00%     75.79% # Class of committed instruction. (Count)
board.processor.cores.core.commitStats0.committedInstType::SimdAesMix            0      0.00%     75.79% # Class of committed instruction. (Count)
board.processor.cores.core.commitStats0.committedInstType::SimdSha1Hash            0      0.00%     75.79% # Class of committed instruction. (Count)
board.processor.cores.core.commitStats0.committedInstType::SimdSha1Hash2            0      0.00%     75.79% # Class of committed instruction. (Count)
board.processor.cores.core.commitStats0.committedInstType::SimdSha256Hash            0      0.00%     75.79% # Class of committed instruction. (Count)
board.processor.cores.core.commitStats0.committedInstType::SimdSha256Hash2            0      0.00%     75.79% # Class of committed instruction. (Count)
board.processor.cores.core.commitStats0.committedInstType::SimdShaSigma2            0      0.00%     75.79% # Class of committed instruction. (Count)
board.processor.cores.core.commitStats0.committedInstType::SimdShaSigma3            0      0.00%     75.79% # Class of committed instruction. (Count)
board.processor.cores.core.commitStats0.committedInstType::SimdPredAlu            0      0.00%     75.79% # Class of committed instruction. (Count)
board.processor.cores.core.commitStats0.committedInstType::Matrix            0      0.00%     75.79% # Class of committed instruction. (Count)
board.processor.cores.core.commitStats0.committedInstType::MatrixMov            0      0.00%     75.79% # Class of committed instruction. (Count)
board.processor.cores.core.commitStats0.committedInstType::MatrixOP            0      0.00%     75.79% # Class of committed instruction. (Count)
board.processor.cores.core.commitStats0.committedInstType::MemRead     13053563     20.92%     96.71% # Class of committed instruction. (Count)
board.processor.cores.core.commitStats0.committedInstType::MemWrite      2031756      3.26%     99.97% # Class of committed instruction. (Count)
board.processor.cores.core.commitStats0.committedInstType::FloatMemRead        10141      0.02%     99.98% # Class of committed instruction. (Count)
board.processor.cores.core.commitStats0.committedInstType::FloatMemWrite        10551      0.02%    100.00% # Class of committed instruction. (Count)
board.processor.cores.core.commitStats0.committedInstType::IprAccess            0      0.00%    100.00% # Class of committed instruction. (Count)
board.processor.cores.core.commitStats0.committedInstType::InstPrefetch            0      0.00%    100.00% # Class of committed instruction. (Count)
board.processor.cores.core.commitStats0.committedInstType::VectorUnitStrideLoad            0      0.00%    100.00% # Class of committed instruction. (Count)
board.processor.cores.core.commitStats0.committedInstType::VectorUnitStrideStore            0      0.00%    100.00% # Class of committed instruction. (Count)
board.processor.cores.core.commitStats0.committedInstType::VectorUnitStrideMaskLoad            0      0.00%    100.00% # Class of committed instruction. (Count)
board.processor.cores.core.commitStats0.committedInstType::VectorUnitStrideMaskStore            0      0.00%    100.00% # Class of committed instruction. (Count)
board.processor.cores.core.commitStats0.committedInstType::VectorStridedLoad            0      0.00%    100.00% # Class of committed instruction. (Count)
board.processor.cores.core.commitStats0.committedInstType::VectorStridedStore            0      0.00%    100.00% # Class of committed instruction. (Count)
board.processor.cores.core.commitStats0.committedInstType::VectorIndexedLoad            0      0.00%    100.00% # Class of committed instruction. (Count)
board.processor.cores.core.commitStats0.committedInstType::VectorIndexedStore            0      0.00%    100.00% # Class of committed instruction. (Count)
board.processor.cores.core.commitStats0.committedInstType::VectorUnitStrideFaultOnlyFirstLoad            0      0.00%    100.00% # Class of committed instruction. (Count)
board.processor.cores.core.commitStats0.committedInstType::VectorWholeRegisterLoad            0      0.00%    100.00% # Class of committed instruction. (Count)
board.processor.cores.core.commitStats0.committedInstType::VectorWholeRegisterStore            0      0.00%    100.00% # Class of committed instruction. (Count)
board.processor.cores.core.commitStats0.committedInstType::VectorIntegerArith            0      0.00%    100.00% # Class of committed instruction. (Count)
board.processor.cores.core.commitStats0.committedInstType::VectorFloatArith            0      0.00%    100.00% # Class of committed instruction. (Count)
board.processor.cores.core.commitStats0.committedInstType::VectorFloatConvert            0      0.00%    100.00% # Class of committed instruction. (Count)
board.processor.cores.core.commitStats0.committedInstType::VectorIntegerReduce            0      0.00%    100.00% # Class of committed instruction. (Count)
board.processor.cores.core.commitStats0.committedInstType::VectorFloatReduce            0      0.00%    100.00% # Class of committed instruction. (Count)
board.processor.cores.core.commitStats0.committedInstType::VectorMisc            0      0.00%    100.00% # Class of committed instruction. (Count)
board.processor.cores.core.commitStats0.committedInstType::VectorIntegerExtension            0      0.00%    100.00% # Class of committed instruction. (Count)
board.processor.cores.core.commitStats0.committedInstType::VectorConfig            0      0.00%    100.00% # Class of committed instruction. (Count)
board.processor.cores.core.commitStats0.committedInstType::total     62388879                       # Class of committed instruction. (Count)
board.processor.cores.core.executeStats0.numInsts            0                       # Number of executed instructions (Count)
board.processor.cores.core.executeStats0.numNop            0                       # Number of nop insts executed (Count)
board.processor.cores.core.executeStats0.numBranches            0                       # Number of branches executed (Count)
board.processor.cores.core.executeStats0.numLoadInsts            0                       # Number of load instructions executed (Count)
board.processor.cores.core.executeStats0.numStoreInsts            0                       # Number of stores executed (Count)
board.processor.cores.core.executeStats0.instRate            0                       # Inst execution rate ((Count/Cycle))
board.processor.cores.core.executeStats0.numFpRegWrites            0                       # Number of times the floating registers were written (Count)
board.processor.cores.core.executeStats0.numMemRefs            0                       # Number of memory refs (Count)
board.processor.cores.core.executeStats0.numVecAluAccesses            0                       # Number of vector alu accesses (Count)
board.processor.cores.core.executeStats0.numDiscardedOps      3079083                       # Number of ops (including micro ops) which were discarded before commit (Count)
board.processor.cores.core.fetch2.intInstructions           62                       # Number of integer instructions successfully decoded (Count)
board.processor.cores.core.fetch2.fpInstructions            0                       # Number of floating point instructions successfully decoded (Count)
board.processor.cores.core.fetch2.vecInstructions            0                       # Number of SIMD instructions successfully decoded (Count)
board.processor.cores.core.fetch2.loadInstructions            0                       # Number of memory load instructions successfully decoded (Count)
board.processor.cores.core.fetch2.storeInstructions            0                       # Number of memory store instructions successfully decoded (Count)
board.processor.cores.core.fetch2.amoInstructions            0                       # Number of memory atomic instructions successfully decoded (Count)
board.processor.cores.core.fetchStats0.numInsts            0                       # Number of instructions fetched (thread level) (Count)
board.processor.cores.core.fetchStats0.numOps            0                       # Number of ops (including micro ops) fetched (thread level) (Count)
board.processor.cores.core.fetchStats0.fetchRate            0                       # Number of inst fetches per cycle ((Count/Cycle))
board.processor.cores.core.fetchStats0.branchRate            0                       # Number of branch fetches per cycle (Ratio)
board.processor.cores.core.fetchStats0.numFetchSuspends            0                       # Number of times Execute suspended instruction fetching (Count)
board.processor.cores.core.interrupts.clk_domain.clock         8000                       # Clock period in ticks (Tick)
board.processor.cores.core.mmu.dtb.rdAccesses     14084354                       # TLB accesses on read requests (Count)
board.processor.cores.core.mmu.dtb.wrAccesses      2042526                       # TLB accesses on write requests (Count)
board.processor.cores.core.mmu.dtb.rdMisses          136                       # TLB misses on read requests (Count)
board.processor.cores.core.mmu.dtb.wrMisses           12                       # TLB misses on write requests (Count)
board.processor.cores.core.mmu.dtb.walker.power_state.pwrStateResidencyTicks::UNDEFINED 846209475000                       # Cumulative time (in ticks) in various power states (Tick)
board.processor.cores.core.mmu.itb.rdAccesses            0                       # TLB accesses on read requests (Count)
board.processor.cores.core.mmu.itb.wrAccesses      7077809                       # TLB accesses on write requests (Count)
board.processor.cores.core.mmu.itb.rdMisses            0                       # TLB misses on read requests (Count)
board.processor.cores.core.mmu.itb.wrMisses           57                       # TLB misses on write requests (Count)
board.processor.cores.core.mmu.itb.walker.power_state.pwrStateResidencyTicks::UNDEFINED 846209475000                       # Cumulative time (in ticks) in various power states (Tick)
board.processor.cores.core.power_state.pwrStateResidencyTicks::ON 846209475000                       # Cumulative time (in ticks) in various power states (Tick)
board.processor.cores.core.thread_0.numInsts     53215448                       # Number of Instructions committed (Count)
board.processor.cores.core.thread_0.numOps     62388879                       # Number of Ops committed (Count)
board.processor.cores.core.thread_0.numMemRefs            0                       # Number of Memory References (Count)
board.processor.cores.core.workload.numSyscalls           17                       # Number of system calls (Count)
board.workload.inst.arm                             0                       # number of arm instructions executed (Count)
board.workload.inst.quiesce                         0                       # number of quiesce instructions executed (Count)
board.processor.cores.core.idleCycles      1570201696                       # Total number of cycles that the object has spent stopped (Unspecified)
board.processor.cores.core.tickCycles       122217254                       # Number of cycles that the object actually ticked (Unspecified)

---------- End Simulation Statistics   ----------
