
---------- Begin Simulation Statistics ----------
simSeconds                                   0.440952                       # Number of seconds simulated (Second)
simTicks                                 440952324890                       # Number of ticks simulated (Tick)
finalTick                                440952324890                       # Number of ticks from beginning of simulation (restored from checkpoints and never reset) (Tick)
simFreq                                  1000000000000                       # The number of ticks per simulated second ((Tick/Second))
hostSeconds                                    396.05                       # Real time elapsed on the host (Second)
hostTickRate                               1113379328                       # The number of ticks simulated per host second (ticks/s) ((Tick/Second))
hostMemory                                    1184512                       # Number of bytes of host memory used (Byte)
simInsts                                     53215428                       # Number of instructions simulated (Count)
simOps                                       62388830                       # Number of ops (including micro ops) simulated (Count)
hostInstRate                                   134366                       # Simulator instruction rate (inst/s) ((Count/Second))
hostOpRate                                     157528                       # Simulator op (including micro ops) rate (op/s) ((Count/Second))
board.cache_hierarchy.membus.transDist::ReadReq     17109171                       # Transaction distribution (Count)
board.cache_hierarchy.membus.transDist::ReadResp     17109170                       # Transaction distribution (Count)
board.cache_hierarchy.membus.transDist::WriteReq      2042286                       # Transaction distribution (Count)
board.cache_hierarchy.membus.transDist::WriteResp      2042286                       # Transaction distribution (Count)
board.cache_hierarchy.membus.transDist::SoftPFReq         1249                       # Transaction distribution (Count)
board.cache_hierarchy.membus.transDist::SoftPFResp         1249                       # Transaction distribution (Count)
board.cache_hierarchy.membus.transDist::LockedRMWReadReq           18                       # Transaction distribution (Count)
board.cache_hierarchy.membus.transDist::LockedRMWReadResp           18                       # Transaction distribution (Count)
board.cache_hierarchy.membus.transDist::LockedRMWWriteReq           18                       # Transaction distribution (Count)
board.cache_hierarchy.membus.transDist::LockedRMWWriteResp           18                       # Transaction distribution (Count)
board.cache_hierarchy.membus.pktCount_board.processor.cores.core.icache_port::board.memory.mem_ctrl.port     10129267                       # Packet count per connected requestor and responder (Count)
board.cache_hierarchy.membus.pktCount_board.processor.cores.core.icache_port::total     10129267                       # Packet count per connected requestor and responder (Count)
board.cache_hierarchy.membus.pktCount_board.processor.cores.core.dcache_port::board.memory.mem_ctrl.port     28176216                       # Packet count per connected requestor and responder (Count)
board.cache_hierarchy.membus.pktCount_board.processor.cores.core.dcache_port::total     28176216                       # Packet count per connected requestor and responder (Count)
board.cache_hierarchy.membus.pktCount::total     38305483                       # Packet count per connected requestor and responder (Count)
board.cache_hierarchy.membus.pktSize_board.processor.cores.core.icache_port::board.memory.mem_ctrl.port    324136512                       # Cumulative packet size per connected requestor and responder (Byte)
board.cache_hierarchy.membus.pktSize_board.processor.cores.core.icache_port::total    324136512                       # Cumulative packet size per connected requestor and responder (Byte)
board.cache_hierarchy.membus.pktSize_board.processor.cores.core.dcache_port::board.memory.mem_ctrl.port     56443695                       # Cumulative packet size per connected requestor and responder (Byte)
board.cache_hierarchy.membus.pktSize_board.processor.cores.core.dcache_port::total     56443695                       # Cumulative packet size per connected requestor and responder (Byte)
board.cache_hierarchy.membus.pktSize::total    380580207                       # Cumulative packet size per connected requestor and responder (Byte)
board.cache_hierarchy.membus.snoops                 0                       # Total snoops (Count)
board.cache_hierarchy.membus.snoopTraffic            0                       # Total snoop traffic (Byte)
board.cache_hierarchy.membus.snoopFanout::samples     19152745                       # Request fanout histogram (Count)
board.cache_hierarchy.membus.snoopFanout::mean            0                       # Request fanout histogram (Count)
board.cache_hierarchy.membus.snoopFanout::stdev            0                       # Request fanout histogram (Count)
board.cache_hierarchy.membus.snoopFanout::underflows            0      0.00%      0.00% # Request fanout histogram (Count)
board.cache_hierarchy.membus.snoopFanout::0     19152745    100.00%    100.00% # Request fanout histogram (Count)
board.cache_hierarchy.membus.snoopFanout::1            0      0.00%    100.00% # Request fanout histogram (Count)
board.cache_hierarchy.membus.snoopFanout::overflows            0      0.00%    100.00% # Request fanout histogram (Count)
board.cache_hierarchy.membus.snoopFanout::min_value            0                       # Request fanout histogram (Count)
board.cache_hierarchy.membus.snoopFanout::max_value            0                       # Request fanout histogram (Count)
board.cache_hierarchy.membus.snoopFanout::total     19152745                       # Request fanout histogram (Count)
board.cache_hierarchy.membus.badaddr_responder.power_state.pwrStateResidencyTicks::UNDEFINED 440952324890                       # Cumulative time (in ticks) in various power states (Tick)
board.cache_hierarchy.membus.power_state.pwrStateResidencyTicks::UNDEFINED 440952324890                       # Cumulative time (in ticks) in various power states (Tick)
board.cache_hierarchy.membus.reqLayer2.occupancy   8160094280                       # Layer occupancy (ticks) (Tick)
board.cache_hierarchy.membus.reqLayer2.utilization          0.0                       # Layer utilization (Ratio)
board.cache_hierarchy.membus.respLayer0.occupancy   4775715765                       # Layer occupancy (ticks) (Tick)
board.cache_hierarchy.membus.respLayer0.utilization          0.0                       # Layer utilization (Ratio)
board.cache_hierarchy.membus.respLayer1.occupancy  11843051455                       # Layer occupancy (ticks) (Tick)
board.cache_hierarchy.membus.respLayer1.utilization          0.0                       # Layer utilization (Ratio)
board.cache_hierarchy.membus.snoop_filter.totRequests            0                       # Total number of requests made to the snoop filter. (Count)
board.cache_hierarchy.membus.snoop_filter.hitSingleRequests            0                       # Number of requests hitting in the snoop filter with a single holder of the requested data. (Count)
board.cache_hierarchy.membus.snoop_filter.hitMultiRequests            0                       # Number of requests hitting in the snoop filter with multiple (>1) holders of the requested data. (Count)
board.cache_hierarchy.membus.snoop_filter.totSnoops            0                       # Total number of snoops made to the snoop filter. (Count)
board.cache_hierarchy.membus.snoop_filter.hitSingleSnoops            0                       # Number of snoops hitting in the snoop filter with a single holder of the requested data. (Count)
board.cache_hierarchy.membus.snoop_filter.hitMultiSnoops            0                       # Number of snoops hitting in the snoop filter with multiple (>1) holders of the requested data. (Count)
board.clk_domain.clock                            385                       # Clock period in ticks (Tick)
board.clk_domain.voltage_domain.voltage             1                       # Voltage in Volts (Volt)
board.memory.mem_ctrl.avgPriority_processor.cores.core.inst::samples   5064634.00                       # Average QoS priority value for accepted requests (Count)
board.memory.mem_ctrl.avgPriority_processor.cores.core.data::samples   9051403.00                       # Average QoS priority value for accepted requests (Count)
board.memory.mem_ctrl.priorityMinLatency 0.000000018750                       # per QoS priority minimum request to response latency (Second)
board.memory.mem_ctrl.priorityMaxLatency 0.086696725560                       # per QoS priority maximum request to response latency (Second)
board.memory.mem_ctrl.numReadWriteTurnArounds          138                       # Number of turnarounds from READ to WRITE (Count)
board.memory.mem_ctrl.numWriteReadTurnArounds          138                       # Number of turnarounds from WRITE to READ (Count)
board.memory.mem_ctrl.numStayReadState       22375108                       # Number of times bus staying in READ state (Count)
board.memory.mem_ctrl.numStayWriteState          2083                       # Number of times bus staying in WRITE state (Count)
board.memory.mem_ctrl.readReqs               17110438                       # Number of read requests accepted (Count)
board.memory.mem_ctrl.writeReqs               2042304                       # Number of write requests accepted (Count)
board.memory.mem_ctrl.readBursts             17110438                       # Number of controller read bursts, including those serviced by the write queue (Count)
board.memory.mem_ctrl.writeBursts             2042304                       # Number of controller write bursts, including those merged in the write queue (Count)
board.memory.mem_ctrl.servicedByWrQ           2996636                       # Number of controller read bursts serviced by the write queue (Count)
board.memory.mem_ctrl.mergedWrBursts          2040069                       # Number of controller write bursts merged with an existing one (Count)
board.memory.mem_ctrl.neitherReadNorWriteReqs            0                       # Number of requests that are neither read nor write (Count)
board.memory.mem_ctrl.avgRdQLen                  3.82                       # Average read queue length when enqueuing ((Count/Tick))
board.memory.mem_ctrl.avgWrQLen                 25.35                       # Average write queue length when enqueuing ((Count/Tick))
board.memory.mem_ctrl.numRdRetry                    3                       # Number of times read queue was full causing retry (Count)
board.memory.mem_ctrl.numWrRetry                    0                       # Number of times write queue was full causing retry (Count)
board.memory.mem_ctrl.readPktSize::0             1532                       # Read request sizes (log2) (Count)
board.memory.mem_ctrl.readPktSize::1               21                       # Read request sizes (log2) (Count)
board.memory.mem_ctrl.readPktSize::2         12032072                       # Read request sizes (log2) (Count)
board.memory.mem_ctrl.readPktSize::3            12179                       # Read request sizes (log2) (Count)
board.memory.mem_ctrl.readPktSize::4                0                       # Read request sizes (log2) (Count)
board.memory.mem_ctrl.readPktSize::5                0                       # Read request sizes (log2) (Count)
board.memory.mem_ctrl.readPktSize::6          5064634                       # Read request sizes (log2) (Count)
board.memory.mem_ctrl.writePktSize::0              39                       # Write request sizes (log2) (Count)
board.memory.mem_ctrl.writePktSize::1               2                       # Write request sizes (log2) (Count)
board.memory.mem_ctrl.writePktSize::2         2030435                       # Write request sizes (log2) (Count)
board.memory.mem_ctrl.writePktSize::3           11828                       # Write request sizes (log2) (Count)
board.memory.mem_ctrl.writePktSize::4               0                       # Write request sizes (log2) (Count)
board.memory.mem_ctrl.writePktSize::5               0                       # Write request sizes (log2) (Count)
board.memory.mem_ctrl.writePktSize::6               0                       # Write request sizes (log2) (Count)
board.memory.mem_ctrl.rdQLenPdf::0            1038575                       # What read queue length does an incoming req see (Count)
board.memory.mem_ctrl.rdQLenPdf::1            1183964                       # What read queue length does an incoming req see (Count)
board.memory.mem_ctrl.rdQLenPdf::2            5798834                       # What read queue length does an incoming req see (Count)
board.memory.mem_ctrl.rdQLenPdf::3            4947376                       # What read queue length does an incoming req see (Count)
board.memory.mem_ctrl.rdQLenPdf::4            1060128                       # What read queue length does an incoming req see (Count)
board.memory.mem_ctrl.rdQLenPdf::5              50459                       # What read queue length does an incoming req see (Count)
board.memory.mem_ctrl.rdQLenPdf::6              26328                       # What read queue length does an incoming req see (Count)
board.memory.mem_ctrl.rdQLenPdf::7                669                       # What read queue length does an incoming req see (Count)
board.memory.mem_ctrl.rdQLenPdf::8                653                       # What read queue length does an incoming req see (Count)
board.memory.mem_ctrl.rdQLenPdf::9                630                       # What read queue length does an incoming req see (Count)
board.memory.mem_ctrl.rdQLenPdf::10               632                       # What read queue length does an incoming req see (Count)
board.memory.mem_ctrl.rdQLenPdf::11               661                       # What read queue length does an incoming req see (Count)
board.memory.mem_ctrl.rdQLenPdf::12               629                       # What read queue length does an incoming req see (Count)
board.memory.mem_ctrl.rdQLenPdf::13               637                       # What read queue length does an incoming req see (Count)
board.memory.mem_ctrl.rdQLenPdf::14               716                       # What read queue length does an incoming req see (Count)
board.memory.mem_ctrl.rdQLenPdf::15               647                       # What read queue length does an incoming req see (Count)
board.memory.mem_ctrl.rdQLenPdf::16               671                       # What read queue length does an incoming req see (Count)
board.memory.mem_ctrl.rdQLenPdf::17               656                       # What read queue length does an incoming req see (Count)
board.memory.mem_ctrl.rdQLenPdf::18               630                       # What read queue length does an incoming req see (Count)
board.memory.mem_ctrl.rdQLenPdf::19                38                       # What read queue length does an incoming req see (Count)
board.memory.mem_ctrl.rdQLenPdf::20                43                       # What read queue length does an incoming req see (Count)
board.memory.mem_ctrl.rdQLenPdf::21                27                       # What read queue length does an incoming req see (Count)
board.memory.mem_ctrl.rdQLenPdf::22                28                       # What read queue length does an incoming req see (Count)
board.memory.mem_ctrl.rdQLenPdf::23                28                       # What read queue length does an incoming req see (Count)
board.memory.mem_ctrl.rdQLenPdf::24                32                       # What read queue length does an incoming req see (Count)
board.memory.mem_ctrl.rdQLenPdf::25                30                       # What read queue length does an incoming req see (Count)
board.memory.mem_ctrl.rdQLenPdf::26                26                       # What read queue length does an incoming req see (Count)
board.memory.mem_ctrl.rdQLenPdf::27                17                       # What read queue length does an incoming req see (Count)
board.memory.mem_ctrl.rdQLenPdf::28                14                       # What read queue length does an incoming req see (Count)
board.memory.mem_ctrl.rdQLenPdf::29                10                       # What read queue length does an incoming req see (Count)
board.memory.mem_ctrl.rdQLenPdf::30                 7                       # What read queue length does an incoming req see (Count)
board.memory.mem_ctrl.rdQLenPdf::31                 7                       # What read queue length does an incoming req see (Count)
board.memory.mem_ctrl.wrQLenPdf::0                  1                       # What write queue length does an incoming req see (Count)
board.memory.mem_ctrl.wrQLenPdf::1                  1                       # What write queue length does an incoming req see (Count)
board.memory.mem_ctrl.wrQLenPdf::2                  1                       # What write queue length does an incoming req see (Count)
board.memory.mem_ctrl.wrQLenPdf::3                  1                       # What write queue length does an incoming req see (Count)
board.memory.mem_ctrl.wrQLenPdf::4                  1                       # What write queue length does an incoming req see (Count)
board.memory.mem_ctrl.wrQLenPdf::5                  1                       # What write queue length does an incoming req see (Count)
board.memory.mem_ctrl.wrQLenPdf::6                  1                       # What write queue length does an incoming req see (Count)
board.memory.mem_ctrl.wrQLenPdf::7                  1                       # What write queue length does an incoming req see (Count)
board.memory.mem_ctrl.wrQLenPdf::8                  1                       # What write queue length does an incoming req see (Count)
board.memory.mem_ctrl.wrQLenPdf::9                  1                       # What write queue length does an incoming req see (Count)
board.memory.mem_ctrl.wrQLenPdf::10                 1                       # What write queue length does an incoming req see (Count)
board.memory.mem_ctrl.wrQLenPdf::11                 1                       # What write queue length does an incoming req see (Count)
board.memory.mem_ctrl.wrQLenPdf::12                 1                       # What write queue length does an incoming req see (Count)
board.memory.mem_ctrl.wrQLenPdf::13                 1                       # What write queue length does an incoming req see (Count)
board.memory.mem_ctrl.wrQLenPdf::14                 1                       # What write queue length does an incoming req see (Count)
board.memory.mem_ctrl.wrQLenPdf::15                 4                       # What write queue length does an incoming req see (Count)
board.memory.mem_ctrl.wrQLenPdf::16                 5                       # What write queue length does an incoming req see (Count)
board.memory.mem_ctrl.wrQLenPdf::17               116                       # What write queue length does an incoming req see (Count)
board.memory.mem_ctrl.wrQLenPdf::18               135                       # What write queue length does an incoming req see (Count)
board.memory.mem_ctrl.wrQLenPdf::19               134                       # What write queue length does an incoming req see (Count)
board.memory.mem_ctrl.wrQLenPdf::20               137                       # What write queue length does an incoming req see (Count)
board.memory.mem_ctrl.wrQLenPdf::21               139                       # What write queue length does an incoming req see (Count)
board.memory.mem_ctrl.wrQLenPdf::22               138                       # What write queue length does an incoming req see (Count)
board.memory.mem_ctrl.wrQLenPdf::23               138                       # What write queue length does an incoming req see (Count)
board.memory.mem_ctrl.wrQLenPdf::24               138                       # What write queue length does an incoming req see (Count)
board.memory.mem_ctrl.wrQLenPdf::25               138                       # What write queue length does an incoming req see (Count)
board.memory.mem_ctrl.wrQLenPdf::26               140                       # What write queue length does an incoming req see (Count)
board.memory.mem_ctrl.wrQLenPdf::27               142                       # What write queue length does an incoming req see (Count)
board.memory.mem_ctrl.wrQLenPdf::28               143                       # What write queue length does an incoming req see (Count)
board.memory.mem_ctrl.wrQLenPdf::29               143                       # What write queue length does an incoming req see (Count)
board.memory.mem_ctrl.wrQLenPdf::30               138                       # What write queue length does an incoming req see (Count)
board.memory.mem_ctrl.wrQLenPdf::31               141                       # What write queue length does an incoming req see (Count)
board.memory.mem_ctrl.wrQLenPdf::32               138                       # What write queue length does an incoming req see (Count)
board.memory.mem_ctrl.wrQLenPdf::33                 4                       # What write queue length does an incoming req see (Count)
board.memory.mem_ctrl.wrQLenPdf::34                 5                       # What write queue length does an incoming req see (Count)
board.memory.mem_ctrl.wrQLenPdf::35                 3                       # What write queue length does an incoming req see (Count)
board.memory.mem_ctrl.wrQLenPdf::36                 1                       # What write queue length does an incoming req see (Count)
board.memory.mem_ctrl.wrQLenPdf::37                 0                       # What write queue length does an incoming req see (Count)
board.memory.mem_ctrl.wrQLenPdf::38                 0                       # What write queue length does an incoming req see (Count)
board.memory.mem_ctrl.wrQLenPdf::39                 0                       # What write queue length does an incoming req see (Count)
board.memory.mem_ctrl.wrQLenPdf::40                 0                       # What write queue length does an incoming req see (Count)
board.memory.mem_ctrl.wrQLenPdf::41                 0                       # What write queue length does an incoming req see (Count)
board.memory.mem_ctrl.wrQLenPdf::42                 0                       # What write queue length does an incoming req see (Count)
board.memory.mem_ctrl.wrQLenPdf::43                 0                       # What write queue length does an incoming req see (Count)
board.memory.mem_ctrl.wrQLenPdf::44                 0                       # What write queue length does an incoming req see (Count)
board.memory.mem_ctrl.wrQLenPdf::45                 0                       # What write queue length does an incoming req see (Count)
board.memory.mem_ctrl.wrQLenPdf::46                 0                       # What write queue length does an incoming req see (Count)
board.memory.mem_ctrl.wrQLenPdf::47                 0                       # What write queue length does an incoming req see (Count)
board.memory.mem_ctrl.wrQLenPdf::48                 0                       # What write queue length does an incoming req see (Count)
board.memory.mem_ctrl.wrQLenPdf::49                 0                       # What write queue length does an incoming req see (Count)
board.memory.mem_ctrl.wrQLenPdf::50                 0                       # What write queue length does an incoming req see (Count)
board.memory.mem_ctrl.wrQLenPdf::51                 0                       # What write queue length does an incoming req see (Count)
board.memory.mem_ctrl.wrQLenPdf::52                 0                       # What write queue length does an incoming req see (Count)
board.memory.mem_ctrl.wrQLenPdf::53                 0                       # What write queue length does an incoming req see (Count)
board.memory.mem_ctrl.wrQLenPdf::54                 0                       # What write queue length does an incoming req see (Count)
board.memory.mem_ctrl.wrQLenPdf::55                 0                       # What write queue length does an incoming req see (Count)
board.memory.mem_ctrl.wrQLenPdf::56                 0                       # What write queue length does an incoming req see (Count)
board.memory.mem_ctrl.wrQLenPdf::57                 0                       # What write queue length does an incoming req see (Count)
board.memory.mem_ctrl.wrQLenPdf::58                 0                       # What write queue length does an incoming req see (Count)
board.memory.mem_ctrl.wrQLenPdf::59                 0                       # What write queue length does an incoming req see (Count)
board.memory.mem_ctrl.wrQLenPdf::60                 0                       # What write queue length does an incoming req see (Count)
board.memory.mem_ctrl.wrQLenPdf::61                 0                       # What write queue length does an incoming req see (Count)
board.memory.mem_ctrl.wrQLenPdf::62                 0                       # What write queue length does an incoming req see (Count)
board.memory.mem_ctrl.wrQLenPdf::63                 0                       # What write queue length does an incoming req see (Count)
board.memory.mem_ctrl.rdPerTurnAround::samples          138                       # Reads before turning the bus around for writes (Count)
board.memory.mem_ctrl.rdPerTurnAround::mean 102273.775362                       # Reads before turning the bus around for writes (Count)
board.memory.mem_ctrl.rdPerTurnAround::stdev 154966.797644                       # Reads before turning the bus around for writes (Count)
board.memory.mem_ctrl.rdPerTurnAround::0-16383           95     68.84%     68.84% # Reads before turning the bus around for writes (Count)
board.memory.mem_ctrl.rdPerTurnAround::16384-32767            1      0.72%     69.57% # Reads before turning the bus around for writes (Count)
board.memory.mem_ctrl.rdPerTurnAround::311296-327679           18     13.04%     82.61% # Reads before turning the bus around for writes (Count)
board.memory.mem_ctrl.rdPerTurnAround::327680-344063           11      7.97%     90.58% # Reads before turning the bus around for writes (Count)
board.memory.mem_ctrl.rdPerTurnAround::344064-360447           12      8.70%     99.28% # Reads before turning the bus around for writes (Count)
board.memory.mem_ctrl.rdPerTurnAround::393216-409599            1      0.72%    100.00% # Reads before turning the bus around for writes (Count)
board.memory.mem_ctrl.rdPerTurnAround::total          138                       # Reads before turning the bus around for writes (Count)
board.memory.mem_ctrl.wrPerTurnAround::samples          138                       # Writes before turning the bus around for reads (Count)
board.memory.mem_ctrl.wrPerTurnAround::mean    16.065217                       # Writes before turning the bus around for reads (Count)
board.memory.mem_ctrl.wrPerTurnAround::gmean    16.060326                       # Writes before turning the bus around for reads (Count)
board.memory.mem_ctrl.wrPerTurnAround::stdev     0.422134                       # Writes before turning the bus around for reads (Count)
board.memory.mem_ctrl.wrPerTurnAround::16          134     97.10%     97.10% # Writes before turning the bus around for reads (Count)
board.memory.mem_ctrl.wrPerTurnAround::17            1      0.72%     97.83% # Writes before turning the bus around for reads (Count)
board.memory.mem_ctrl.wrPerTurnAround::18            2      1.45%     99.28% # Writes before turning the bus around for reads (Count)
board.memory.mem_ctrl.wrPerTurnAround::20            1      0.72%    100.00% # Writes before turning the bus around for reads (Count)
board.memory.mem_ctrl.wrPerTurnAround::total          138                       # Writes before turning the bus around for reads (Count)
board.memory.mem_ctrl.bytesReadWrQ          191784704                       # Total number of bytes read from write queue (Byte)
board.memory.mem_ctrl.bytesReadSys          372363864                       # Total read bytes from the system interface side (Byte)
board.memory.mem_ctrl.bytesWrittenSys         8216407                       # Total written bytes from the system interface side (Byte)
board.memory.mem_ctrl.avgRdBWSys         844453794.62029123                       # Average system read bandwidth in Byte/s ((Byte/Second))
board.memory.mem_ctrl.avgWrBWSys         18633322.77939495                       # Average system write bandwidth in Byte/s ((Byte/Second))
board.memory.mem_ctrl.totGap             440952321040                       # Total gap between requests (Tick)
board.memory.mem_ctrl.avgGap                 23022.93                       # Average gap between requests ((Tick/Count))
board.memory.mem_ctrl.requestorReadBytes::processor.cores.core.inst    324136576                       # Per-requestor bytes read from memory (Byte)
board.memory.mem_ctrl.requestorReadBytes::processor.cores.core.data     36239387                       # Per-requestor bytes read from memory (Byte)
board.memory.mem_ctrl.requestorWriteBytes::processor.cores.core.data        14848                       # Per-requestor bytes write to memory (Byte)
board.memory.mem_ctrl.requestorReadRate::processor.cores.core.inst 735083041.190131187439                       # Per-requestor bytes read from memory rate ((Byte/Second))
board.memory.mem_ctrl.requestorReadRate::processor.cores.core.data 82184365.416465997696                       # Per-requestor bytes read from memory rate ((Byte/Second))
board.memory.mem_ctrl.requestorWriteRate::processor.cores.core.data 33672.574475492293                       # Per-requestor bytes write to memory rate ((Byte/Second))
board.memory.mem_ctrl.requestorReadAccesses::processor.cores.core.inst      5064634                       # Per-requestor read serviced memory accesses (Count)
board.memory.mem_ctrl.requestorReadAccesses::processor.cores.core.data     12045804                       # Per-requestor read serviced memory accesses (Count)
board.memory.mem_ctrl.requestorWriteAccesses::processor.cores.core.data      2042304                       # Per-requestor write serviced memory accesses (Count)
board.memory.mem_ctrl.requestorReadTotalLat::processor.cores.core.inst 318261370730                       # Per-requestor read total memory access latency (Tick)
board.memory.mem_ctrl.requestorReadTotalLat::processor.cores.core.data 868570048540                       # Per-requestor read total memory access latency (Tick)
board.memory.mem_ctrl.requestorWriteTotalLat::processor.cores.core.data 11029660226800                       # Per-requestor write total memory access latency (Tick)
board.memory.mem_ctrl.requestorReadAvgLat::processor.cores.core.inst     62839.95                       # Per-requestor read average memory access latency ((Tick/Count))
board.memory.mem_ctrl.requestorReadAvgLat::processor.cores.core.data     72105.61                       # Per-requestor read average memory access latency ((Tick/Count))
board.memory.mem_ctrl.requestorWriteAvgLat::processor.cores.core.data   5400596.69                       # Per-requestor write average memory access latency ((Tick/Count))
board.memory.mem_ctrl.dram.bytesRead::processor.cores.core.inst    324136512                       # Number of bytes read from this memory (Byte)
board.memory.mem_ctrl.dram.bytesRead::processor.cores.core.data     48227288                       # Number of bytes read from this memory (Byte)
board.memory.mem_ctrl.dram.bytesRead::total    372363800                       # Number of bytes read from this memory (Byte)
board.memory.mem_ctrl.dram.bytesInstRead::processor.cores.core.inst    324136512                       # Number of instructions bytes read from this memory (Byte)
board.memory.mem_ctrl.dram.bytesInstRead::total    324136512                       # Number of instructions bytes read from this memory (Byte)
board.memory.mem_ctrl.dram.bytesWritten::processor.cores.core.data      8216407                       # Number of bytes written to this memory (Byte)
board.memory.mem_ctrl.dram.bytesWritten::total      8216407                       # Number of bytes written to this memory (Byte)
board.memory.mem_ctrl.dram.numReads::processor.cores.core.inst      5064633                       # Number of read requests responded to by this memory (Count)
board.memory.mem_ctrl.dram.numReads::processor.cores.core.data     12045804                       # Number of read requests responded to by this memory (Count)
board.memory.mem_ctrl.dram.numReads::total     17110437                       # Number of read requests responded to by this memory (Count)
board.memory.mem_ctrl.dram.numWrites::processor.cores.core.data      2042304                       # Number of write requests responded to by this memory (Count)
board.memory.mem_ctrl.dram.numWrites::total      2042304                       # Number of write requests responded to by this memory (Count)
board.memory.mem_ctrl.dram.bwRead::processor.cores.core.inst    735082896                       # Total read bandwidth from this memory ((Byte/Second))
board.memory.mem_ctrl.dram.bwRead::processor.cores.core.data    109370753                       # Total read bandwidth from this memory ((Byte/Second))
board.memory.mem_ctrl.dram.bwRead::total    844453649                       # Total read bandwidth from this memory ((Byte/Second))
board.memory.mem_ctrl.dram.bwInstRead::processor.cores.core.inst    735082896                       # Instruction read bandwidth from this memory ((Byte/Second))
board.memory.mem_ctrl.dram.bwInstRead::total    735082896                       # Instruction read bandwidth from this memory ((Byte/Second))
board.memory.mem_ctrl.dram.bwWrite::processor.cores.core.data     18633323                       # Write bandwidth from this memory ((Byte/Second))
board.memory.mem_ctrl.dram.bwWrite::total     18633323                       # Write bandwidth from this memory ((Byte/Second))
board.memory.mem_ctrl.dram.bwTotal::processor.cores.core.inst    735082896                       # Total bandwidth to/from this memory ((Byte/Second))
board.memory.mem_ctrl.dram.bwTotal::processor.cores.core.data    128004076                       # Total bandwidth to/from this memory ((Byte/Second))
board.memory.mem_ctrl.dram.bwTotal::total    863086972                       # Total bandwidth to/from this memory ((Byte/Second))
board.memory.mem_ctrl.dram.readBursts        14113802                       # Number of DRAM read bursts (Count)
board.memory.mem_ctrl.dram.writeBursts           2217                       # Number of DRAM write bursts (Count)
board.memory.mem_ctrl.dram.perBankRdBursts::0     11288838                       # Per bank write bursts (Count)
board.memory.mem_ctrl.dram.perBankRdBursts::1        97714                       # Per bank write bursts (Count)
board.memory.mem_ctrl.dram.perBankRdBursts::2        97395                       # Per bank write bursts (Count)
board.memory.mem_ctrl.dram.perBankRdBursts::3       193158                       # Per bank write bursts (Count)
board.memory.mem_ctrl.dram.perBankRdBursts::4       193279                       # Per bank write bursts (Count)
board.memory.mem_ctrl.dram.perBankRdBursts::5       194353                       # Per bank write bursts (Count)
board.memory.mem_ctrl.dram.perBankRdBursts::6       198515                       # Per bank write bursts (Count)
board.memory.mem_ctrl.dram.perBankRdBursts::7       204906                       # Per bank write bursts (Count)
board.memory.mem_ctrl.dram.perBankRdBursts::8       205021                       # Per bank write bursts (Count)
board.memory.mem_ctrl.dram.perBankRdBursts::9       205179                       # Per bank write bursts (Count)
board.memory.mem_ctrl.dram.perBankRdBursts::10       205168                       # Per bank write bursts (Count)
board.memory.mem_ctrl.dram.perBankRdBursts::11       204991                       # Per bank write bursts (Count)
board.memory.mem_ctrl.dram.perBankRdBursts::12       206525                       # Per bank write bursts (Count)
board.memory.mem_ctrl.dram.perBankRdBursts::13       206031                       # Per bank write bursts (Count)
board.memory.mem_ctrl.dram.perBankRdBursts::14       206061                       # Per bank write bursts (Count)
board.memory.mem_ctrl.dram.perBankRdBursts::15       206668                       # Per bank write bursts (Count)
board.memory.mem_ctrl.dram.perBankWrBursts::0          186                       # Per bank write bursts (Count)
board.memory.mem_ctrl.dram.perBankWrBursts::1          104                       # Per bank write bursts (Count)
board.memory.mem_ctrl.dram.perBankWrBursts::2          100                       # Per bank write bursts (Count)
board.memory.mem_ctrl.dram.perBankWrBursts::3          130                       # Per bank write bursts (Count)
board.memory.mem_ctrl.dram.perBankWrBursts::4          130                       # Per bank write bursts (Count)
board.memory.mem_ctrl.dram.perBankWrBursts::5          130                       # Per bank write bursts (Count)
board.memory.mem_ctrl.dram.perBankWrBursts::6          131                       # Per bank write bursts (Count)
board.memory.mem_ctrl.dram.perBankWrBursts::7          130                       # Per bank write bursts (Count)
board.memory.mem_ctrl.dram.perBankWrBursts::8          130                       # Per bank write bursts (Count)
board.memory.mem_ctrl.dram.perBankWrBursts::9          130                       # Per bank write bursts (Count)
board.memory.mem_ctrl.dram.perBankWrBursts::10          130                       # Per bank write bursts (Count)
board.memory.mem_ctrl.dram.perBankWrBursts::11          145                       # Per bank write bursts (Count)
board.memory.mem_ctrl.dram.perBankWrBursts::12          203                       # Per bank write bursts (Count)
board.memory.mem_ctrl.dram.perBankWrBursts::13          145                       # Per bank write bursts (Count)
board.memory.mem_ctrl.dram.perBankWrBursts::14          130                       # Per bank write bursts (Count)
board.memory.mem_ctrl.dram.perBankWrBursts::15          163                       # Per bank write bursts (Count)
board.memory.mem_ctrl.dram.totQLat       922197631770                       # Total ticks spent queuing (Tick)
board.memory.mem_ctrl.dram.totBusLat      70569010000                       # Total ticks spent in databus transfers (Tick)
board.memory.mem_ctrl.dram.totMemAccLat  1186831419270                       # Total ticks spent from burst creation until serviced by the DRAM (Tick)
board.memory.mem_ctrl.dram.avgQLat           65340.13                       # Average queueing delay per DRAM burst ((Tick/Count))
board.memory.mem_ctrl.dram.avgBusLat          5000.00                       # Average bus latency per DRAM burst ((Tick/Count))
board.memory.mem_ctrl.dram.avgMemAccLat      84090.13                       # Average memory access latency per DRAM burst ((Tick/Count))
board.memory.mem_ctrl.dram.readRowHits        5674405                       # Number of row buffer hits during reads (Count)
board.memory.mem_ctrl.dram.writeRowHits          2020                       # Number of row buffer hits during writes (Count)
board.memory.mem_ctrl.dram.readRowHitRate        40.20                       # Row buffer hit rate for reads (Ratio)
board.memory.mem_ctrl.dram.writeRowHitRate        91.11                       # Row buffer hit rate for writes (Ratio)
board.memory.mem_ctrl.dram.bytesPerActivate::samples      8439587                       # Bytes accessed per row activation (Byte)
board.memory.mem_ctrl.dram.bytesPerActivate::mean   107.045989                       # Bytes accessed per row activation (Byte)
board.memory.mem_ctrl.dram.bytesPerActivate::gmean    88.505035                       # Bytes accessed per row activation (Byte)
board.memory.mem_ctrl.dram.bytesPerActivate::stdev   124.836216                       # Bytes accessed per row activation (Byte)
board.memory.mem_ctrl.dram.bytesPerActivate::0-127      5065058     60.02%     60.02% # Bytes accessed per row activation (Byte)
board.memory.mem_ctrl.dram.bytesPerActivate::128-255      3167108     37.53%     97.54% # Bytes accessed per row activation (Byte)
board.memory.mem_ctrl.dram.bytesPerActivate::256-383        24153      0.29%     97.83% # Bytes accessed per row activation (Byte)
board.memory.mem_ctrl.dram.bytesPerActivate::384-511        15960      0.19%     98.02% # Bytes accessed per row activation (Byte)
board.memory.mem_ctrl.dram.bytesPerActivate::512-639        15417      0.18%     98.20% # Bytes accessed per row activation (Byte)
board.memory.mem_ctrl.dram.bytesPerActivate::640-767        14610      0.17%     98.37% # Bytes accessed per row activation (Byte)
board.memory.mem_ctrl.dram.bytesPerActivate::768-895         9483      0.11%     98.49% # Bytes accessed per row activation (Byte)
board.memory.mem_ctrl.dram.bytesPerActivate::896-1023         9374      0.11%     98.60% # Bytes accessed per row activation (Byte)
board.memory.mem_ctrl.dram.bytesPerActivate::1024-1151       118424      1.40%    100.00% # Bytes accessed per row activation (Byte)
board.memory.mem_ctrl.dram.bytesPerActivate::total      8439587                       # Bytes accessed per row activation (Byte)
board.memory.mem_ctrl.dram.bytesRead        903283328                       # Total bytes read (Byte)
board.memory.mem_ctrl.dram.bytesWritten        141888                       # Total bytes written (Byte)
board.memory.mem_ctrl.dram.avgRdBW        2048.482970                       # Average DRAM read bandwidth in MiBytes/s ((Byte/Second))
board.memory.mem_ctrl.dram.avgWrBW           0.321776                       # Average DRAM write bandwidth in MiBytes/s ((Byte/Second))
board.memory.mem_ctrl.dram.peakBW            12800.00                       # Theoretical peak bandwidth in MiByte/s ((Byte/Second))
board.memory.mem_ctrl.dram.busUtil              16.01                       # Data bus utilization in percentage (Ratio)
board.memory.mem_ctrl.dram.busUtilRead          16.00                       # Data bus utilization in percentage for reads (Ratio)
board.memory.mem_ctrl.dram.busUtilWrite          0.00                       # Data bus utilization in percentage for writes (Ratio)
board.memory.mem_ctrl.dram.pageHitRate          40.21                       # Row buffer hit rate, read and write combined (Ratio)
board.memory.mem_ctrl.dram.power_state.pwrStateResidencyTicks::UNDEFINED 440952324890                       # Cumulative time (in ticks) in various power states (Tick)
board.memory.mem_ctrl.dram.rank0.actEnergy  58913018220                       # Energy for activate commands per rank (pJ) (Joule)
board.memory.mem_ctrl.dram.rank0.preEnergy  31312996605                       # Energy for precharge commands per rank (pJ) (Joule)
board.memory.mem_ctrl.dram.rank0.readEnergy  89022648120                       # Energy for read commands per rank (pJ) (Joule)
board.memory.mem_ctrl.dram.rank0.writeEnergy      5434020                       # Energy for write commands per rank (pJ) (Joule)
board.memory.mem_ctrl.dram.rank0.refreshEnergy 34808292480.000008                       # Energy for refresh commands per rank (pJ) (Joule)
board.memory.mem_ctrl.dram.rank0.actBackEnergy 193394552160                       # Energy for active background per rank (pJ) (Joule)
board.memory.mem_ctrl.dram.rank0.preBackEnergy   6467122560                       # Energy for precharge background per rank (pJ) (Joule)
board.memory.mem_ctrl.dram.rank0.actPowerDownEnergy            0                       # Energy for active power-down per rank (pJ) (Joule)
board.memory.mem_ctrl.dram.rank0.prePowerDownEnergy            0                       # Energy for precharge power-down per rank (pJ) (Joule)
board.memory.mem_ctrl.dram.rank0.selfRefreshEnergy            0                       # Energy for self refresh per rank (pJ) (Joule)
board.memory.mem_ctrl.dram.rank0.totalEnergy 413924064165                       # Total energy per rank (pJ) (Joule)
board.memory.mem_ctrl.dram.rank0.averagePower   938.704800                       # Core power per rank (mW) (Watt)
board.memory.mem_ctrl.dram.rank0.totalIdleTime            0                       # Total Idle time Per DRAM Rank (Tick)
board.memory.mem_ctrl.dram.rank0.pwrStateTime::IDLE      2905750                       # Time in different power states (Tick)
board.memory.mem_ctrl.dram.rank0.pwrStateTime::REF  14724320000                       # Time in different power states (Tick)
board.memory.mem_ctrl.dram.rank0.pwrStateTime::SREF            0                       # Time in different power states (Tick)
board.memory.mem_ctrl.dram.rank0.pwrStateTime::PRE_PDN            0                       # Time in different power states (Tick)
board.memory.mem_ctrl.dram.rank0.pwrStateTime::ACT 426225099140                       # Time in different power states (Tick)
board.memory.mem_ctrl.dram.rank0.pwrStateTime::ACT_PDN            0                       # Time in different power states (Tick)
board.memory.mem_ctrl.dram.rank1.actEnergy   1345682940                       # Energy for activate commands per rank (pJ) (Joule)
board.memory.mem_ctrl.dram.rank1.preEnergy    715236060                       # Energy for precharge commands per rank (pJ) (Joule)
board.memory.mem_ctrl.dram.rank1.readEnergy  11749898160                       # Energy for read commands per rank (pJ) (Joule)
board.memory.mem_ctrl.dram.rank1.writeEnergy      6138720                       # Energy for write commands per rank (pJ) (Joule)
board.memory.mem_ctrl.dram.rank1.refreshEnergy 34808292480.000008                       # Energy for refresh commands per rank (pJ) (Joule)
board.memory.mem_ctrl.dram.rank1.actBackEnergy 195377893950                       # Energy for active background per rank (pJ) (Joule)
board.memory.mem_ctrl.dram.rank1.preBackEnergy   4796940000                       # Energy for precharge background per rank (pJ) (Joule)
board.memory.mem_ctrl.dram.rank1.actPowerDownEnergy            0                       # Energy for active power-down per rank (pJ) (Joule)
board.memory.mem_ctrl.dram.rank1.prePowerDownEnergy            0                       # Energy for precharge power-down per rank (pJ) (Joule)
board.memory.mem_ctrl.dram.rank1.selfRefreshEnergy            0                       # Energy for self refresh per rank (pJ) (Joule)
board.memory.mem_ctrl.dram.rank1.totalEnergy 248800082310                       # Total energy per rank (pJ) (Joule)
board.memory.mem_ctrl.dram.rank1.averagePower   564.233520                       # Core power per rank (mW) (Watt)
board.memory.mem_ctrl.dram.rank1.totalIdleTime            0                       # Total Idle time Per DRAM Rank (Tick)
board.memory.mem_ctrl.dram.rank1.pwrStateTime::IDLE  10689946340                       # Time in different power states (Tick)
board.memory.mem_ctrl.dram.rank1.pwrStateTime::REF  14724320000                       # Time in different power states (Tick)
board.memory.mem_ctrl.dram.rank1.pwrStateTime::SREF            0                       # Time in different power states (Tick)
board.memory.mem_ctrl.dram.rank1.pwrStateTime::PRE_PDN            0                       # Time in different power states (Tick)
board.memory.mem_ctrl.dram.rank1.pwrStateTime::ACT 415538058550                       # Time in different power states (Tick)
board.memory.mem_ctrl.dram.rank1.pwrStateTime::ACT_PDN            0                       # Time in different power states (Tick)
board.memory.mem_ctrl.power_state.pwrStateResidencyTicks::UNDEFINED 440952324890                       # Cumulative time (in ticks) in various power states (Tick)
board.processor.cores.core.numCycles       1145330715                       # Number of cpu cycles simulated (Cycle)
board.processor.cores.core.cpi              21.522531                       # CPI: cycles per instruction (core level) ((Cycle/Count))
board.processor.cores.core.ipc               0.046463                       # IPC: instructions per cycle (core level) ((Count/Cycle))
board.processor.cores.core.numWorkItemsStarted            0                       # Number of work items this cpu started (Count)
board.processor.cores.core.numWorkItemsCompleted            0                       # Number of work items this cpu completed (Count)
board.processor.cores.core.instsAdded        62404899                       # Number of instructions added to the IQ (excludes non-spec) (Count)
board.processor.cores.core.nonSpecInstsAdded          120                       # Number of non-speculative instructions added to the IQ (Count)
board.processor.cores.core.instsIssued       66428924                       # Number of instructions issued (Count)
board.processor.cores.core.squashedInstsIssued           55                       # Number of squashed instructions issued (Count)
board.processor.cores.core.squashedInstsExamined        16183                       # Number of squashed instructions iterated over during squash; mainly for profiling (Count)
board.processor.cores.core.squashedOperandsExamined        33826                       # Number of squashed operands that are examined and possibly removed from graph (Count)
board.processor.cores.core.squashedNonSpecRemoved           66                       # Number of squashed non-spec instructions that were removed (Count)
board.processor.cores.core.numIssuedDist::samples    325709966                       # Number of insts issued each cycle (Count)
board.processor.cores.core.numIssuedDist::mean     0.203951                       # Number of insts issued each cycle (Count)
board.processor.cores.core.numIssuedDist::stdev     0.493630                       # Number of insts issued each cycle (Count)
board.processor.cores.core.numIssuedDist::underflows            0      0.00%      0.00% # Number of insts issued each cycle (Count)
board.processor.cores.core.numIssuedDist::0    269412721     82.72%     82.72% # Number of insts issued each cycle (Count)
board.processor.cores.core.numIssuedDist::1     48243659     14.81%     97.53% # Number of insts issued each cycle (Count)
board.processor.cores.core.numIssuedDist::2      6998675      2.15%     99.68% # Number of insts issued each cycle (Count)
board.processor.cores.core.numIssuedDist::3        38183      0.01%     99.69% # Number of insts issued each cycle (Count)
board.processor.cores.core.numIssuedDist::4      1012762      0.31%    100.00% # Number of insts issued each cycle (Count)
board.processor.cores.core.numIssuedDist::5         2152      0.00%    100.00% # Number of insts issued each cycle (Count)
board.processor.cores.core.numIssuedDist::6         1180      0.00%    100.00% # Number of insts issued each cycle (Count)
board.processor.cores.core.numIssuedDist::7          594      0.00%    100.00% # Number of insts issued each cycle (Count)
board.processor.cores.core.numIssuedDist::8           40      0.00%    100.00% # Number of insts issued each cycle (Count)
board.processor.cores.core.numIssuedDist::overflows            0      0.00%    100.00% # Number of insts issued each cycle (Count)
board.processor.cores.core.numIssuedDist::min_value            0                       # Number of insts issued each cycle (Count)
board.processor.cores.core.numIssuedDist::max_value            8                       # Number of insts issued each cycle (Count)
board.processor.cores.core.numIssuedDist::total    325709966                       # Number of insts issued each cycle (Count)
board.processor.cores.core.statFuBusy::No_OpClass            0      0.00%      0.00% # attempts to use FU when none available (Count)
board.processor.cores.core.statFuBusy::IntAlu           48      0.73%      0.73% # attempts to use FU when none available (Count)
board.processor.cores.core.statFuBusy::IntMult            0      0.00%      0.73% # attempts to use FU when none available (Count)
board.processor.cores.core.statFuBusy::IntDiv            0      0.00%      0.73% # attempts to use FU when none available (Count)
board.processor.cores.core.statFuBusy::FloatAdd            0      0.00%      0.73% # attempts to use FU when none available (Count)
board.processor.cores.core.statFuBusy::FloatCmp            0      0.00%      0.73% # attempts to use FU when none available (Count)
board.processor.cores.core.statFuBusy::FloatCvt            0      0.00%      0.73% # attempts to use FU when none available (Count)
board.processor.cores.core.statFuBusy::FloatMult            0      0.00%      0.73% # attempts to use FU when none available (Count)
board.processor.cores.core.statFuBusy::FloatMultAcc            0      0.00%      0.73% # attempts to use FU when none available (Count)
board.processor.cores.core.statFuBusy::FloatDiv            0      0.00%      0.73% # attempts to use FU when none available (Count)
board.processor.cores.core.statFuBusy::FloatMisc            0      0.00%      0.73% # attempts to use FU when none available (Count)
board.processor.cores.core.statFuBusy::FloatSqrt            0      0.00%      0.73% # attempts to use FU when none available (Count)
board.processor.cores.core.statFuBusy::SimdAdd            0      0.00%      0.73% # attempts to use FU when none available (Count)
board.processor.cores.core.statFuBusy::SimdAddAcc            0      0.00%      0.73% # attempts to use FU when none available (Count)
board.processor.cores.core.statFuBusy::SimdAlu            9      0.14%      0.87% # attempts to use FU when none available (Count)
board.processor.cores.core.statFuBusy::SimdCmp            0      0.00%      0.87% # attempts to use FU when none available (Count)
board.processor.cores.core.statFuBusy::SimdCvt            0      0.00%      0.87% # attempts to use FU when none available (Count)
board.processor.cores.core.statFuBusy::SimdMisc            0      0.00%      0.87% # attempts to use FU when none available (Count)
board.processor.cores.core.statFuBusy::SimdMult            0      0.00%      0.87% # attempts to use FU when none available (Count)
board.processor.cores.core.statFuBusy::SimdMultAcc            0      0.00%      0.87% # attempts to use FU when none available (Count)
board.processor.cores.core.statFuBusy::SimdMatMultAcc            0      0.00%      0.87% # attempts to use FU when none available (Count)
board.processor.cores.core.statFuBusy::SimdShift            0      0.00%      0.87% # attempts to use FU when none available (Count)
board.processor.cores.core.statFuBusy::SimdShiftAcc            0      0.00%      0.87% # attempts to use FU when none available (Count)
board.processor.cores.core.statFuBusy::SimdDiv            0      0.00%      0.87% # attempts to use FU when none available (Count)
board.processor.cores.core.statFuBusy::SimdSqrt            0      0.00%      0.87% # attempts to use FU when none available (Count)
board.processor.cores.core.statFuBusy::SimdFloatAdd            0      0.00%      0.87% # attempts to use FU when none available (Count)
board.processor.cores.core.statFuBusy::SimdFloatAlu            0      0.00%      0.87% # attempts to use FU when none available (Count)
board.processor.cores.core.statFuBusy::SimdFloatCmp            0      0.00%      0.87% # attempts to use FU when none available (Count)
board.processor.cores.core.statFuBusy::SimdFloatCvt            0      0.00%      0.87% # attempts to use FU when none available (Count)
board.processor.cores.core.statFuBusy::SimdFloatDiv            0      0.00%      0.87% # attempts to use FU when none available (Count)
board.processor.cores.core.statFuBusy::SimdFloatMisc            0      0.00%      0.87% # attempts to use FU when none available (Count)
board.processor.cores.core.statFuBusy::SimdFloatMult            0      0.00%      0.87% # attempts to use FU when none available (Count)
board.processor.cores.core.statFuBusy::SimdFloatMultAcc            0      0.00%      0.87% # attempts to use FU when none available (Count)
board.processor.cores.core.statFuBusy::SimdFloatMatMultAcc            0      0.00%      0.87% # attempts to use FU when none available (Count)
board.processor.cores.core.statFuBusy::SimdFloatSqrt            0      0.00%      0.87% # attempts to use FU when none available (Count)
board.processor.cores.core.statFuBusy::SimdReduceAdd            0      0.00%      0.87% # attempts to use FU when none available (Count)
board.processor.cores.core.statFuBusy::SimdReduceAlu            0      0.00%      0.87% # attempts to use FU when none available (Count)
board.processor.cores.core.statFuBusy::SimdReduceCmp            0      0.00%      0.87% # attempts to use FU when none available (Count)
board.processor.cores.core.statFuBusy::SimdFloatReduceAdd            0      0.00%      0.87% # attempts to use FU when none available (Count)
board.processor.cores.core.statFuBusy::SimdFloatReduceCmp            0      0.00%      0.87% # attempts to use FU when none available (Count)
board.processor.cores.core.statFuBusy::SimdAes            0      0.00%      0.87% # attempts to use FU when none available (Count)
board.processor.cores.core.statFuBusy::SimdAesMix            0      0.00%      0.87% # attempts to use FU when none available (Count)
board.processor.cores.core.statFuBusy::SimdSha1Hash            0      0.00%      0.87% # attempts to use FU when none available (Count)
board.processor.cores.core.statFuBusy::SimdSha1Hash2            0      0.00%      0.87% # attempts to use FU when none available (Count)
board.processor.cores.core.statFuBusy::SimdSha256Hash            0      0.00%      0.87% # attempts to use FU when none available (Count)
board.processor.cores.core.statFuBusy::SimdSha256Hash2            0      0.00%      0.87% # attempts to use FU when none available (Count)
board.processor.cores.core.statFuBusy::SimdShaSigma2            0      0.00%      0.87% # attempts to use FU when none available (Count)
board.processor.cores.core.statFuBusy::SimdShaSigma3            0      0.00%      0.87% # attempts to use FU when none available (Count)
board.processor.cores.core.statFuBusy::SimdPredAlu            0      0.00%      0.87% # attempts to use FU when none available (Count)
board.processor.cores.core.statFuBusy::Matrix            0      0.00%      0.87% # attempts to use FU when none available (Count)
board.processor.cores.core.statFuBusy::MatrixMov            0      0.00%      0.87% # attempts to use FU when none available (Count)
board.processor.cores.core.statFuBusy::MatrixOP            0      0.00%      0.87% # attempts to use FU when none available (Count)
board.processor.cores.core.statFuBusy::MemRead           17      0.26%      1.13% # attempts to use FU when none available (Count)
board.processor.cores.core.statFuBusy::MemWrite            9      0.14%      1.27% # attempts to use FU when none available (Count)
board.processor.cores.core.statFuBusy::FloatMemRead         6437     98.32%     99.59% # attempts to use FU when none available (Count)
board.processor.cores.core.statFuBusy::FloatMemWrite           27      0.41%    100.00% # attempts to use FU when none available (Count)
board.processor.cores.core.statFuBusy::IprAccess            0      0.00%    100.00% # attempts to use FU when none available (Count)
board.processor.cores.core.statFuBusy::InstPrefetch            0      0.00%    100.00% # attempts to use FU when none available (Count)
board.processor.cores.core.statFuBusy::VectorUnitStrideLoad            0      0.00%    100.00% # attempts to use FU when none available (Count)
board.processor.cores.core.statFuBusy::VectorUnitStrideStore            0      0.00%    100.00% # attempts to use FU when none available (Count)
board.processor.cores.core.statFuBusy::VectorUnitStrideMaskLoad            0      0.00%    100.00% # attempts to use FU when none available (Count)
board.processor.cores.core.statFuBusy::VectorUnitStrideMaskStore            0      0.00%    100.00% # attempts to use FU when none available (Count)
board.processor.cores.core.statFuBusy::VectorStridedLoad            0      0.00%    100.00% # attempts to use FU when none available (Count)
board.processor.cores.core.statFuBusy::VectorStridedStore            0      0.00%    100.00% # attempts to use FU when none available (Count)
board.processor.cores.core.statFuBusy::VectorIndexedLoad            0      0.00%    100.00% # attempts to use FU when none available (Count)
board.processor.cores.core.statFuBusy::VectorIndexedStore            0      0.00%    100.00% # attempts to use FU when none available (Count)
board.processor.cores.core.statFuBusy::VectorUnitStrideFaultOnlyFirstLoad            0      0.00%    100.00% # attempts to use FU when none available (Count)
board.processor.cores.core.statFuBusy::VectorWholeRegisterLoad            0      0.00%    100.00% # attempts to use FU when none available (Count)
board.processor.cores.core.statFuBusy::VectorWholeRegisterStore            0      0.00%    100.00% # attempts to use FU when none available (Count)
board.processor.cores.core.statFuBusy::VectorIntegerArith            0      0.00%    100.00% # attempts to use FU when none available (Count)
board.processor.cores.core.statFuBusy::VectorFloatArith            0      0.00%    100.00% # attempts to use FU when none available (Count)
board.processor.cores.core.statFuBusy::VectorFloatConvert            0      0.00%    100.00% # attempts to use FU when none available (Count)
board.processor.cores.core.statFuBusy::VectorIntegerReduce            0      0.00%    100.00% # attempts to use FU when none available (Count)
board.processor.cores.core.statFuBusy::VectorFloatReduce            0      0.00%    100.00% # attempts to use FU when none available (Count)
board.processor.cores.core.statFuBusy::VectorMisc            0      0.00%    100.00% # attempts to use FU when none available (Count)
board.processor.cores.core.statFuBusy::VectorIntegerExtension            0      0.00%    100.00% # attempts to use FU when none available (Count)
board.processor.cores.core.statFuBusy::VectorConfig            0      0.00%    100.00% # attempts to use FU when none available (Count)
board.processor.cores.core.statIssuedInstType_0::No_OpClass          539      0.00%      0.00% # Number of instructions issued per FU type, per thread (Count)
board.processor.cores.core.statIssuedInstType_0::IntAlu     46290223     69.68%     69.68% # Number of instructions issued per FU type, per thread (Count)
board.processor.cores.core.statIssuedInstType_0::IntMult      1000004      1.51%     71.19% # Number of instructions issued per FU type, per thread (Count)
board.processor.cores.core.statIssuedInstType_0::IntDiv           30      0.00%     71.19% # Number of instructions issued per FU type, per thread (Count)
board.processor.cores.core.statIssuedInstType_0::FloatAdd          215      0.00%     71.19% # Number of instructions issued per FU type, per thread (Count)
board.processor.cores.core.statIssuedInstType_0::FloatCmp            0      0.00%     71.19% # Number of instructions issued per FU type, per thread (Count)
board.processor.cores.core.statIssuedInstType_0::FloatCvt            0      0.00%     71.19% # Number of instructions issued per FU type, per thread (Count)
board.processor.cores.core.statIssuedInstType_0::FloatMult            0      0.00%     71.19% # Number of instructions issued per FU type, per thread (Count)
board.processor.cores.core.statIssuedInstType_0::FloatMultAcc            0      0.00%     71.19% # Number of instructions issued per FU type, per thread (Count)
board.processor.cores.core.statIssuedInstType_0::FloatDiv            0      0.00%     71.19% # Number of instructions issued per FU type, per thread (Count)
board.processor.cores.core.statIssuedInstType_0::FloatMisc            0      0.00%     71.19% # Number of instructions issued per FU type, per thread (Count)
board.processor.cores.core.statIssuedInstType_0::FloatSqrt            0      0.00%     71.19% # Number of instructions issued per FU type, per thread (Count)
board.processor.cores.core.statIssuedInstType_0::SimdAdd            8      0.00%     71.19% # Number of instructions issued per FU type, per thread (Count)
board.processor.cores.core.statIssuedInstType_0::SimdAddAcc            0      0.00%     71.19% # Number of instructions issued per FU type, per thread (Count)
board.processor.cores.core.statIssuedInstType_0::SimdAlu          154      0.00%     71.19% # Number of instructions issued per FU type, per thread (Count)
board.processor.cores.core.statIssuedInstType_0::SimdCmp            0      0.00%     71.19% # Number of instructions issued per FU type, per thread (Count)
board.processor.cores.core.statIssuedInstType_0::SimdCvt           70      0.00%     71.19% # Number of instructions issued per FU type, per thread (Count)
board.processor.cores.core.statIssuedInstType_0::SimdMisc          265      0.00%     71.19% # Number of instructions issued per FU type, per thread (Count)
board.processor.cores.core.statIssuedInstType_0::SimdMult            0      0.00%     71.19% # Number of instructions issued per FU type, per thread (Count)
board.processor.cores.core.statIssuedInstType_0::SimdMultAcc            0      0.00%     71.19% # Number of instructions issued per FU type, per thread (Count)
board.processor.cores.core.statIssuedInstType_0::SimdMatMultAcc            0      0.00%     71.19% # Number of instructions issued per FU type, per thread (Count)
board.processor.cores.core.statIssuedInstType_0::SimdShift            0      0.00%     71.19% # Number of instructions issued per FU type, per thread (Count)
board.processor.cores.core.statIssuedInstType_0::SimdShiftAcc            0      0.00%     71.19% # Number of instructions issued per FU type, per thread (Count)
board.processor.cores.core.statIssuedInstType_0::SimdDiv            0      0.00%     71.19% # Number of instructions issued per FU type, per thread (Count)
board.processor.cores.core.statIssuedInstType_0::SimdSqrt            0      0.00%     71.19% # Number of instructions issued per FU type, per thread (Count)
board.processor.cores.core.statIssuedInstType_0::SimdFloatAdd            0      0.00%     71.19% # Number of instructions issued per FU type, per thread (Count)
board.processor.cores.core.statIssuedInstType_0::SimdFloatAlu            0      0.00%     71.19% # Number of instructions issued per FU type, per thread (Count)
board.processor.cores.core.statIssuedInstType_0::SimdFloatCmp            0      0.00%     71.19% # Number of instructions issued per FU type, per thread (Count)
board.processor.cores.core.statIssuedInstType_0::SimdFloatCvt            0      0.00%     71.19% # Number of instructions issued per FU type, per thread (Count)
board.processor.cores.core.statIssuedInstType_0::SimdFloatDiv            0      0.00%     71.19% # Number of instructions issued per FU type, per thread (Count)
board.processor.cores.core.statIssuedInstType_0::SimdFloatMisc            0      0.00%     71.19% # Number of instructions issued per FU type, per thread (Count)
board.processor.cores.core.statIssuedInstType_0::SimdFloatMult            0      0.00%     71.19% # Number of instructions issued per FU type, per thread (Count)
board.processor.cores.core.statIssuedInstType_0::SimdFloatMultAcc            0      0.00%     71.19% # Number of instructions issued per FU type, per thread (Count)
board.processor.cores.core.statIssuedInstType_0::SimdFloatMatMultAcc            0      0.00%     71.19% # Number of instructions issued per FU type, per thread (Count)
board.processor.cores.core.statIssuedInstType_0::SimdFloatSqrt            0      0.00%     71.19% # Number of instructions issued per FU type, per thread (Count)
board.processor.cores.core.statIssuedInstType_0::SimdReduceAdd            0      0.00%     71.19% # Number of instructions issued per FU type, per thread (Count)
board.processor.cores.core.statIssuedInstType_0::SimdReduceAlu            0      0.00%     71.19% # Number of instructions issued per FU type, per thread (Count)
board.processor.cores.core.statIssuedInstType_0::SimdReduceCmp            0      0.00%     71.19% # Number of instructions issued per FU type, per thread (Count)
board.processor.cores.core.statIssuedInstType_0::SimdFloatReduceAdd            0      0.00%     71.19% # Number of instructions issued per FU type, per thread (Count)
board.processor.cores.core.statIssuedInstType_0::SimdFloatReduceCmp            0      0.00%     71.19% # Number of instructions issued per FU type, per thread (Count)
board.processor.cores.core.statIssuedInstType_0::SimdAes            0      0.00%     71.19% # Number of instructions issued per FU type, per thread (Count)
board.processor.cores.core.statIssuedInstType_0::SimdAesMix            0      0.00%     71.19% # Number of instructions issued per FU type, per thread (Count)
board.processor.cores.core.statIssuedInstType_0::SimdSha1Hash            0      0.00%     71.19% # Number of instructions issued per FU type, per thread (Count)
board.processor.cores.core.statIssuedInstType_0::SimdSha1Hash2            0      0.00%     71.19% # Number of instructions issued per FU type, per thread (Count)
board.processor.cores.core.statIssuedInstType_0::SimdSha256Hash            0      0.00%     71.19% # Number of instructions issued per FU type, per thread (Count)
board.processor.cores.core.statIssuedInstType_0::SimdSha256Hash2            0      0.00%     71.19% # Number of instructions issued per FU type, per thread (Count)
board.processor.cores.core.statIssuedInstType_0::SimdShaSigma2            0      0.00%     71.19% # Number of instructions issued per FU type, per thread (Count)
board.processor.cores.core.statIssuedInstType_0::SimdShaSigma3            0      0.00%     71.19% # Number of instructions issued per FU type, per thread (Count)
board.processor.cores.core.statIssuedInstType_0::SimdPredAlu            0      0.00%     71.19% # Number of instructions issued per FU type, per thread (Count)
board.processor.cores.core.statIssuedInstType_0::Matrix            0      0.00%     71.19% # Number of instructions issued per FU type, per thread (Count)
board.processor.cores.core.statIssuedInstType_0::MatrixMov            0      0.00%     71.19% # Number of instructions issued per FU type, per thread (Count)
board.processor.cores.core.statIssuedInstType_0::MatrixOP            0      0.00%     71.19% # Number of instructions issued per FU type, per thread (Count)
board.processor.cores.core.statIssuedInstType_0::MemRead     17058272     25.68%     96.87% # Number of instructions issued per FU type, per thread (Count)
board.processor.cores.core.statIssuedInstType_0::MemWrite      2032120      3.06%     99.93% # Number of instructions issued per FU type, per thread (Count)
board.processor.cores.core.statIssuedInstType_0::FloatMemRead        36392      0.05%     99.98% # Number of instructions issued per FU type, per thread (Count)
board.processor.cores.core.statIssuedInstType_0::FloatMemWrite        10632      0.02%    100.00% # Number of instructions issued per FU type, per thread (Count)
board.processor.cores.core.statIssuedInstType_0::IprAccess            0      0.00%    100.00% # Number of instructions issued per FU type, per thread (Count)
board.processor.cores.core.statIssuedInstType_0::InstPrefetch            0      0.00%    100.00% # Number of instructions issued per FU type, per thread (Count)
board.processor.cores.core.statIssuedInstType_0::VectorUnitStrideLoad            0      0.00%    100.00% # Number of instructions issued per FU type, per thread (Count)
board.processor.cores.core.statIssuedInstType_0::VectorUnitStrideStore            0      0.00%    100.00% # Number of instructions issued per FU type, per thread (Count)
board.processor.cores.core.statIssuedInstType_0::VectorUnitStrideMaskLoad            0      0.00%    100.00% # Number of instructions issued per FU type, per thread (Count)
board.processor.cores.core.statIssuedInstType_0::VectorUnitStrideMaskStore            0      0.00%    100.00% # Number of instructions issued per FU type, per thread (Count)
board.processor.cores.core.statIssuedInstType_0::VectorStridedLoad            0      0.00%    100.00% # Number of instructions issued per FU type, per thread (Count)
board.processor.cores.core.statIssuedInstType_0::VectorStridedStore            0      0.00%    100.00% # Number of instructions issued per FU type, per thread (Count)
board.processor.cores.core.statIssuedInstType_0::VectorIndexedLoad            0      0.00%    100.00% # Number of instructions issued per FU type, per thread (Count)
board.processor.cores.core.statIssuedInstType_0::VectorIndexedStore            0      0.00%    100.00% # Number of instructions issued per FU type, per thread (Count)
board.processor.cores.core.statIssuedInstType_0::VectorUnitStrideFaultOnlyFirstLoad            0      0.00%    100.00% # Number of instructions issued per FU type, per thread (Count)
board.processor.cores.core.statIssuedInstType_0::VectorWholeRegisterLoad            0      0.00%    100.00% # Number of instructions issued per FU type, per thread (Count)
board.processor.cores.core.statIssuedInstType_0::VectorWholeRegisterStore            0      0.00%    100.00% # Number of instructions issued per FU type, per thread (Count)
board.processor.cores.core.statIssuedInstType_0::VectorIntegerArith            0      0.00%    100.00% # Number of instructions issued per FU type, per thread (Count)
board.processor.cores.core.statIssuedInstType_0::VectorFloatArith            0      0.00%    100.00% # Number of instructions issued per FU type, per thread (Count)
board.processor.cores.core.statIssuedInstType_0::VectorFloatConvert            0      0.00%    100.00% # Number of instructions issued per FU type, per thread (Count)
board.processor.cores.core.statIssuedInstType_0::VectorIntegerReduce            0      0.00%    100.00% # Number of instructions issued per FU type, per thread (Count)
board.processor.cores.core.statIssuedInstType_0::VectorFloatReduce            0      0.00%    100.00% # Number of instructions issued per FU type, per thread (Count)
board.processor.cores.core.statIssuedInstType_0::VectorMisc            0      0.00%    100.00% # Number of instructions issued per FU type, per thread (Count)
board.processor.cores.core.statIssuedInstType_0::VectorIntegerExtension            0      0.00%    100.00% # Number of instructions issued per FU type, per thread (Count)
board.processor.cores.core.statIssuedInstType_0::VectorConfig            0      0.00%    100.00% # Number of instructions issued per FU type, per thread (Count)
board.processor.cores.core.statIssuedInstType_0::total     66428924                       # Number of instructions issued per FU type, per thread (Count)
board.processor.cores.core.issueRate         0.058000                       # Inst issue rate ((Count/Cycle))
board.processor.cores.core.fuBusy                6547                       # FU busy when requested (Count)
board.processor.cores.core.fuBusyRate        0.000099                       # FU busy rate (busy events/executed inst) ((Count/Count))
board.processor.cores.core.intInstQueueReads    458472083                       # Number of integer instruction queue reads (Count)
board.processor.cores.core.intInstQueueWrites     62398833                       # Number of integer instruction queue writes (Count)
board.processor.cores.core.intInstQueueWakeupAccesses     62376298                       # Number of integer instruction queue wakeup accesses (Count)
board.processor.cores.core.fpInstQueueReads       102333                       # Number of floating instruction queue reads (Count)
board.processor.cores.core.fpInstQueueWrites        22423                       # Number of floating instruction queue writes (Count)
board.processor.cores.core.fpInstQueueWakeupAccesses        21660                       # Number of floating instruction queue wakeup accesses (Count)
board.processor.cores.core.vecInstQueueReads            0                       # Number of vector instruction queue reads (Count)
board.processor.cores.core.vecInstQueueWrites            0                       # Number of vector instruction queue writes (Count)
board.processor.cores.core.vecInstQueueWakeupAccesses            0                       # Number of vector instruction queue wakeup accesses (Count)
board.processor.cores.core.intAluAccesses     66380549                       # Number of integer alu accesses (Count)
board.processor.cores.core.fpAluAccesses        54383                       # Number of floating point alu accesses (Count)
board.processor.cores.core.vecAluAccesses            0                       # Number of vector alu accesses (Count)
board.processor.cores.core.numSquashedInsts          152                       # Number of squashed instructions skipped in execute (Count)
board.processor.cores.core.numSwp                   0                       # Number of swp insts executed (Count)
board.processor.cores.core.timesIdled        15141079                       # Number of times that the entire CPU went into an idle state and unscheduled itself (Count)
board.processor.cores.core.idleCycles       819620749                       # Total number of cycles that the CPU has spent unscheduled due to idling (Cycle)
board.processor.cores.core.MemDepUnit__0.insertedLoads     13065932                       # Number of loads inserted to the mem dependence unit. (Count)
board.processor.cores.core.MemDepUnit__0.insertedStores      2043614                       # Number of stores inserted to the mem dependence unit. (Count)
board.processor.cores.core.MemDepUnit__0.conflictingLoads        54585                       # Number of conflicting loads. (Count)
board.processor.cores.core.MemDepUnit__0.conflictingStores          136                       # Number of conflicting stores. (Count)
board.processor.cores.core.MemDepUnit__1.insertedLoads            0                       # Number of loads inserted to the mem dependence unit. (Count)
board.processor.cores.core.MemDepUnit__1.insertedStores            0                       # Number of stores inserted to the mem dependence unit. (Count)
board.processor.cores.core.MemDepUnit__1.conflictingLoads            0                       # Number of conflicting loads. (Count)
board.processor.cores.core.MemDepUnit__1.conflictingStores            0                       # Number of conflicting stores. (Count)
board.processor.cores.core.MemDepUnit__2.insertedLoads            0                       # Number of loads inserted to the mem dependence unit. (Count)
board.processor.cores.core.MemDepUnit__2.insertedStores            0                       # Number of stores inserted to the mem dependence unit. (Count)
board.processor.cores.core.MemDepUnit__2.conflictingLoads            0                       # Number of conflicting loads. (Count)
board.processor.cores.core.MemDepUnit__2.conflictingStores            0                       # Number of conflicting stores. (Count)
board.processor.cores.core.MemDepUnit__3.insertedLoads            0                       # Number of loads inserted to the mem dependence unit. (Count)
board.processor.cores.core.MemDepUnit__3.insertedStores            0                       # Number of stores inserted to the mem dependence unit. (Count)
board.processor.cores.core.MemDepUnit__3.conflictingLoads            0                       # Number of conflicting loads. (Count)
board.processor.cores.core.MemDepUnit__3.conflictingStores            0                       # Number of conflicting stores. (Count)
board.processor.cores.core.branchPred.lookups      1035205                       # Number of BP lookups (Count)
[...]
board.processor.cores.core.executeStats0.numIntRegReads    116521839                       # Number of times the integer registers were read (Count)
board.processor.cores.core.executeStats0.numIntRegWrites     58286251                       # Number of times the integer registers were written (Count)
board.processor.cores.core.executeStats0.numMemRefs     19137363                       # Number of memory refs (Count)
board.processor.cores.core.executeStats0.numMiscRegReads     21206480                       # Number of times the Misc registers were read (Count)
board.processor.cores.core.executeStats0.numVecAluAccesses            0                       # Number of vector alu accesses (Count)
board.processor.cores.core.executeStats0.numDiscardedOps            0                       # Number of ops (including micro ops) which were discarded before commit (Count)
board.processor.cores.core.fetch.predictedBranches      1032713                       # Number of branches that fetch has predicted taken (Count)
board.processor.cores.core.fetch.cycles      10214616                       # Number of cycles fetch has run and was not squashing or blocked (Cycle)
board.processor.cores.core.fetch.squashCycles        22286                       # Number of cycles fetch has spent squashing (Cycle)
board.processor.cores.core.fetch.miscStallCycles           69                       # Number of cycles fetch has spent waiting on interrupts, or bad addresses, or out of MSHRs (Cycle)
board.processor.cores.core.fetch.pendingTrapStallCycles          331                       # Number of stall cycles due to pending traps (Cycle)
board.processor.cores.core.fetch.cacheLines      5064634                       # Number of cache lines fetched (Count)
board.processor.cores.core.fetch.icacheSquashes        10879                       # Number of outstanding Icache misses that were squashed (Count)
board.processor.cores.core.fetch.nisnDist::samples    325709966                       # Number of instructions fetched each cycle (Total) (Count)
board.processor.cores.core.fetch.nisnDist::mean     0.191610                       # Number of instructions fetched each cycle (Total) (Count)
board.processor.cores.core.fetch.nisnDist::stdev     1.189553                       # Number of instructions fetched each cycle (Total) (Count)
board.processor.cores.core.fetch.nisnDist::underflows            0      0.00%      0.00% # Number of instructions fetched each cycle (Total) (Count)
board.processor.cores.core.fetch.nisnDist::0    316638646     97.21%     97.21% # Number of instructions fetched each cycle (Total) (Count)
board.processor.cores.core.fetch.nisnDist::1      1000470      0.31%     97.52% # Number of instructions fetched each cycle (Total) (Count)
board.processor.cores.core.fetch.nisnDist::2        21206      0.01%     97.53% # Number of instructions fetched each cycle (Total) (Count)
board.processor.cores.core.fetch.nisnDist::3          783      0.00%     97.53% # Number of instructions fetched each cycle (Total) (Count)
board.processor.cores.core.fetch.nisnDist::4          723      0.00%     97.53% # Number of instructions fetched each cycle (Total) (Count)
board.processor.cores.core.fetch.nisnDist::5          638      0.00%     97.53% # Number of instructions fetched each cycle (Total) (Count)
board.processor.cores.core.fetch.nisnDist::6      1010845      0.31%     97.84% # Number of instructions fetched each cycle (Total) (Count)
board.processor.cores.core.fetch.nisnDist::7      1000436      0.31%     98.15% # Number of instructions fetched each cycle (Total) (Count)
board.processor.cores.core.fetch.nisnDist::8      6036219      1.85%    100.00% # Number of instructions fetched each cycle (Total) (Count)
board.processor.cores.core.fetch.nisnDist::overflows            0      0.00%    100.00% # Number of instructions fetched each cycle (Total) (Count)
board.processor.cores.core.fetch.nisnDist::min_value            0                       # Number of instructions fetched each cycle (Total) (Count)
board.processor.cores.core.fetch.nisnDist::max_value            8                       # Number of instructions fetched each cycle (Total) (Count)
board.processor.cores.core.fetch.nisnDist::total    325709966                       # Number of instructions fetched each cycle (Total) (Count)
board.processor.cores.core.fetchStats0.numInsts     53226137                       # Number of instructions fetched (thread level) (Count)
board.processor.cores.core.fetchStats0.numOps            0                       # Number of ops (including micro ops) fetched (thread level) (Count)
board.processor.cores.core.fetchStats0.fetchRate     0.046472                       # Number of inst fetches per cycle ((Count/Cycle))
board.processor.cores.core.fetchStats0.numBranches      1035205                       # Number of branches fetched (Count)
board.processor.cores.core.fetchStats0.branchRate     0.000904                       # Number of branch fetches per cycle (Ratio)
board.processor.cores.core.fetchStats0.icacheStallCycles    315483807                       # ICache total stall cycles (Cycle)
board.processor.cores.core.fetchStats0.numFetchSuspends            0                       # Number of times Execute suspended instruction fetching (Count)
board.processor.cores.core.iew.idleCycles            0                       # Number of cycles IEW is idle (Cycle)
board.processor.cores.core.iew.squashCycles        10839                       # Number of cycles IEW is squashing (Cycle)
board.processor.cores.core.iew.blockCycles         2981                       # Number of cycles IEW is blocking (Cycle)
board.processor.cores.core.iew.unblockCycles       141198                       # Number of cycles IEW is unblocking (Cycle)
board.processor.cores.core.iew.dispatchedInsts     62405019                       # Number of instructions dispatched to IQ (Count)
board.processor.cores.core.iew.dispSquashedInsts            4                       # Number of squashed instructions skipped by dispatch (Count)
board.processor.cores.core.iew.dispLoadInsts     13065932                       # Number of dispatched load instructions (Count)
board.processor.cores.core.iew.dispStoreInsts      2043614                       # Number of dispatched store instructions (Count)
board.processor.cores.core.iew.dispNonSpecInsts           42                       # Number of dispatched non-speculative instructions (Count)
board.processor.cores.core.iew.iqFullEvents           11                       # Number of times the IQ has become full, causing a stall (Count)
board.processor.cores.core.iew.lsqFullEvents       140761                       # Number of times the LSQ has become full, causing a stall (Count)
board.processor.cores.core.iew.memOrderViolationEvents           54                       # Number of memory order violations (Count)
board.processor.cores.core.iew.predictedTakenIncorrect        10174                       # Number of branches that were predicted taken incorrectly (Count)
board.processor.cores.core.iew.predictedNotTakenIncorrect          615                       # Number of branches that were predicted not taken incorrectly (Count)
board.processor.cores.core.iew.branchMispredicts        10789                       # Number of branch mispredicts detected at execute (Count)
board.processor.cores.core.iew.instsToCommit     62398504                       # Cumulative count of insts sent to commit (Count)
board.processor.cores.core.iew.writebackCount     62397958                       # Cumulative count of insts written-back (Count)
board.processor.cores.core.iew.producerInst     57299116                       # Number of instructions producing a value (Count)
board.processor.cores.core.iew.consumerInst    103439049                       # Number of instructions consuming a value (Count)
board.processor.cores.core.iew.wbRate        0.054480                       # Insts written-back per cycle ((Count/Cycle))
board.processor.cores.core.iew.wbFanout      0.553941                       # Average fanout of values written-back ((Count/Count))
board.processor.cores.core.interrupts.clk_domain.clock         6160                       # Clock period in ticks (Tick)
board.processor.cores.core.lsq0.forwLoads      1019172                       # Number of loads that had data forwarded from stores (Count)
board.processor.cores.core.lsq0.squashedLoads         2257                       # Number of loads squashed (Count)
board.processor.cores.core.lsq0.ignoredResponses            0                       # Number of memory responses ignored because the instruction is squashed (Count)
board.processor.cores.core.lsq0.memOrderViolation           54                       # Number of memory ordering violations (Count)
board.processor.cores.core.lsq0.squashedStores         1310                       # Number of stores squashed (Count)
board.processor.cores.core.lsq0.rescheduledLoads            0                       # Number of loads that were rescheduled (Count)
board.processor.cores.core.lsq0.blockedByCache      4011806                       # Number of times an access to memory failed due to the cache being blocked (Count)
board.processor.cores.core.lsq0.loadToUse::samples     13062427                       # Distribution of cycle latency between the first time a load is issued and its completion (Unspecified)
board.processor.cores.core.lsq0.loadToUse::mean   225.888982                       # Distribution of cycle latency between the first time a load is issued and its completion (Unspecified)
board.processor.cores.core.lsq0.loadToUse::stdev   164.737982                       # Distribution of cycle latency between the first time a load is issued and its completion (Unspecified)
board.processor.cores.core.lsq0.loadToUse::0-9      1019033      7.80%      7.80% # Distribution of cycle latency between the first time a load is issued and its completion (Unspecified)
board.processor.cores.core.lsq0.loadToUse::30-39      2996173     22.94%     30.74% # Distribution of cycle latency between the first time a load is issued and its completion (Unspecified)
board.processor.cores.core.lsq0.loadToUse::40-49          338      0.00%     30.74% # Distribution of cycle latency between the first time a load is issued and its completion (Unspecified)
board.processor.cores.core.lsq0.loadToUse::110-119          412      0.00%     30.74% # Distribution of cycle latency between the first time a load is issued and its completion (Unspecified)
board.processor.cores.core.lsq0.loadToUse::120-129          526      0.00%     30.75% # Distribution of cycle latency between the first time a load is issued and its completion (Unspecified)
board.processor.cores.core.lsq0.loadToUse::130-139          411      0.00%     30.75% # Distribution of cycle latency between the first time a load is issued and its completion (Unspecified)
board.processor.cores.core.lsq0.loadToUse::140-149         3983      0.03%     30.78% # Distribution of cycle latency between the first time a load is issued and its completion (Unspecified)
board.processor.cores.core.lsq0.loadToUse::150-159         1365      0.01%     30.79% # Distribution of cycle latency between the first time a load is issued and its completion (Unspecified)
board.processor.cores.core.lsq0.loadToUse::160-169          345      0.00%     30.80% # Distribution of cycle latency between the first time a load is issued and its completion (Unspecified)
board.processor.cores.core.lsq0.loadToUse::170-179          358      0.00%     30.80% # Distribution of cycle latency between the first time a load is issued and its completion (Unspecified)
board.processor.cores.core.lsq0.loadToUse::180-189          278      0.00%     30.80% # Distribution of cycle latency between the first time a load is issued and its completion (Unspecified)
board.processor.cores.core.lsq0.loadToUse::190-199      1009985      7.73%     38.53% # Distribution of cycle latency between the first time a load is issued and its completion (Unspecified)
board.processor.cores.core.lsq0.loadToUse::200-209          674      0.01%     38.54% # Distribution of cycle latency between the first time a load is issued and its completion (Unspecified)
board.processor.cores.core.lsq0.loadToUse::210-219       999650      7.65%     46.19% # Distribution of cycle latency between the first time a load is issued and its completion (Unspecified)
board.processor.cores.core.lsq0.loadToUse::220-229          298      0.00%     46.19% # Distribution of cycle latency between the first time a load is issued and its completion (Unspecified)
board.processor.cores.core.lsq0.loadToUse::230-239          506      0.00%     46.20% # Distribution of cycle latency between the first time a load is issued and its completion (Unspecified)
board.processor.cores.core.lsq0.loadToUse::240-249       838674      6.42%     52.62% # Distribution of cycle latency between the first time a load is issued and its completion (Unspecified)
board.processor.cores.core.lsq0.loadToUse::250-259        84849      0.65%     53.27% # Distribution of cycle latency between the first time a load is issued and its completion (Unspecified)
board.processor.cores.core.lsq0.loadToUse::260-269       918991      7.04%     60.30% # Distribution of cycle latency between the first time a load is issued and its completion (Unspecified)
board.processor.cores.core.lsq0.loadToUse::270-279       308874      2.36%     62.67% # Distribution of cycle latency between the first time a load is issued and its completion (Unspecified)
board.processor.cores.core.lsq0.loadToUse::280-289       638242      4.89%     67.55% # Distribution of cycle latency between the first time a load is issued and its completion (Unspecified)
board.processor.cores.core.lsq0.loadToUse::290-299          300      0.00%     67.55% # Distribution of cycle latency between the first time a load is issued and its completion (Unspecified)
board.processor.cores.core.lsq0.loadToUse::overflows      4238162     32.45%    100.00% # Distribution of cycle latency between the first time a load is issued and its completion (Unspecified)
board.processor.cores.core.lsq0.loadToUse::min_value            2                       # Distribution of cycle latency between the first time a load is issued and its completion (Unspecified)
board.processor.cores.core.lsq0.loadToUse::max_value         1482                       # Distribution of cycle latency between the first time a load is issued and its completion (Unspecified)
board.processor.cores.core.lsq0.loadToUse::total     13062427                       # Distribution of cycle latency between the first time a load is issued and its completion (Unspecified)
board.processor.cores.core.mmu.dtb.rdAccesses     13065458                       # TLB accesses on read requests (Count)
board.processor.cores.core.mmu.dtb.wrAccesses      2042751                       # TLB accesses on write requests (Count)
board.processor.cores.core.mmu.dtb.rdMisses          491                       # TLB misses on read requests (Count)
board.processor.cores.core.mmu.dtb.wrMisses           35                       # TLB misses on write requests (Count)
board.processor.cores.core.mmu.dtb.walker.power_state.pwrStateResidencyTicks::UNDEFINED 440952324890                       # Cumulative time (in ticks) in various power states (Tick)
board.processor.cores.core.mmu.itb.rdAccesses            0                       # TLB accesses on read requests (Count)
board.processor.cores.core.mmu.itb.wrAccesses      5064700                       # TLB accesses on write requests (Count)
board.processor.cores.core.mmu.itb.rdMisses            0                       # TLB misses on read requests (Count)
board.processor.cores.core.mmu.itb.wrMisses          128                       # TLB misses on write requests (Count)
board.processor.cores.core.mmu.itb.walker.power_state.pwrStateResidencyTicks::UNDEFINED 440952324890                       # Cumulative time (in ticks) in various power states (Tick)
board.processor.cores.core.power_state.pwrStateResidencyTicks::ON 440952324890                       # Cumulative time (in ticks) in various power states (Tick)
board.processor.cores.core.rename.squashCycles        10839                       # Number of cycles rename is squashing (Cycle)
board.processor.cores.core.rename.idleCycles    316281992                       # Number of cycles rename is idle (Cycle)
board.processor.cores.core.rename.blockCycles       146326                       # Number of cycles rename is blocking (Cycle)
board.processor.cores.core.rename.serializeStallCycles         1674                       # count of cycles rename stalled for serializing inst (Cycle)
board.processor.cores.core.rename.runCycles      9068600                       # Number of cycles rename is running (Cycle)
board.processor.cores.core.rename.unblockCycles       200535                       # Number of cycles rename is unblocking (Cycle)
board.processor.cores.core.rename.renamedInsts     62405349                       # Number of instructions processed by rename (Count)
board.processor.cores.core.rename.ROBFullEvents           47                       # Number of times rename has blocked due to ROB full (Count)
board.processor.cores.core.rename.IQFullEvents          385                       # Number of times rename has blocked due to IQ full (Count)
board.processor.cores.core.rename.LQFullEvents          583                       # Number of times rename has blocked due to LQ full (Count)
board.processor.cores.core.rename.SQFullEvents       198876                       # Number of times rename has blocked due to SQ full (Count)
board.processor.cores.core.rename.renamedOperands    172767358                       # Number of destination operands rename has renamed (Count)
board.processor.cores.core.rename.lookups    262370786                       # Number of register rename lookups that rename has made (Count)
board.processor.cores.core.rename.intLookups    112503952                       # Number of integer rename lookups (Count)
board.processor.cores.core.rename.fpLookups        12055                       # Number of floating rename lookups (Count)
board.processor.cores.core.rename.committedMaps    172735954                       # Number of HB maps that are committed (Count)
board.processor.cores.core.rename.undoneMaps        31395                       # Number of HB maps that are undone due to squashing (Count)
board.processor.cores.core.rename.serializing           37                       # count of serializing insts renamed (Count)
board.processor.cores.core.rename.tempSerializing           37                       # count of temporary serializing insts renamed (Count)
board.processor.cores.core.rename.skidInsts        17377                       # count of insts added to the skid buffer (Count)
board.processor.cores.core.rob.reads        384210657                       # The number of ROB reads (Count)
board.processor.cores.core.rob.writes       124822514                       # The number of ROB writes (Count)
board.processor.cores.core.thread_0.numInsts     53215428                       # Number of Instructions committed (Count)
board.processor.cores.core.thread_0.numOps     62388830                       # Number of Ops committed (Count)
board.processor.cores.core.thread_0.numMemRefs            0                       # Number of Memory References (Count)
board.processor.cores.core.workload.numSyscalls           17                       # Number of system calls (Count)
board.workload.inst.arm                             0                       # number of arm instructions executed (Count)
board.workload.inst.quiesce                         0                       # number of quiesce instructions executed (Count)

---------- End Simulation Statistics   ----------
